7

P          0.99674       -0.40111        0.14019
H          0.13327       -0.94227        1.11272
H          1.89167       -1.44984        0.42923
H          0.38511       -1.25387       -0.79953
H          0.60354        0.67474        0.95996
H          0.67910        0.40228       -0.97305
H          2.28701        0.16327        0.11129
