7

Nb         0.91618        0.07758        0.05617
H          0.89538       -1.26396       -1.17714
H          0.92255       -1.15619        1.39756
H         -0.90616        0.08799        0.07540
H          0.93691        1.41902        1.28959
H          0.90964        1.31136       -1.28518
H          2.73850        0.06692        0.03720
