7

As         1.07583       -0.00823       -0.06789
H          1.07896       -1.37924        0.68426
H          1.07526        0.74400        1.30308
H         -0.48785       -0.01118       -0.06683
H          1.07265        1.36290       -0.81982
H          1.07637       -0.76062       -1.43886
H          2.63959       -0.00518       -0.06882
