58

C          0.99983       -0.04171       -0.78320
C          2.11864       -0.11058        0.26110
C          2.96589       -1.38426        0.06933
N          2.15952       -2.56263        0.21839
C          2.75000       -3.73821        0.03055
C          1.96214       -4.94468        0.16831
C          2.49112       -6.20134       -0.02486
C          3.86260       -6.41619       -0.36775
C          4.65078       -5.24509       -0.49153
C          4.14106       -3.96818       -0.30736
Si         4.51516       -8.12391       -0.54457
C          4.18030       -9.10831        1.07431
C          4.60236       -8.29628        2.30222
C          4.48340       -8.95606        3.66936
C          3.12982       -8.82858        4.46549
C          1.77697       -9.42214        3.91250
C          1.59500      -10.96750        3.63553
C          1.75995      -12.04044        4.78750
C          0.85975      -11.93567        6.07459
F         -0.43946      -11.79285        5.75430
F          0.99883      -13.08336        6.77718
F          1.23185      -10.91855        6.86447
F          1.44948      -13.23644        4.20552
F          3.05096      -12.08987        5.18959
F          0.32318      -11.10246        3.15925
F          2.44925      -11.34717        2.65447
F          0.81054       -9.08315        4.81937
F          1.48110       -8.79821        2.74507
F          3.31421       -9.37170        5.70771
F          2.87990       -7.49852        4.62842
F          4.81611      -10.29373        3.63911
F          5.39475       -8.36398        4.53080
C          3.66970       -9.13461       -1.91387
C          6.38708       -8.16175       -0.86074
C          2.98817        1.15141        0.24476
H          0.43467       -0.98309       -0.77033
H          1.42136        0.08563       -1.79528
H          0.31261        0.79922       -0.59625
H          1.64531       -0.20164        1.25556
H          3.81196       -1.34527        0.79982
H          3.45472       -1.31686       -0.93749
H          0.90837       -4.81533        0.42778
H          1.82388       -7.06486        0.09244
H          5.71380       -5.33904       -0.74258
H          4.81113       -3.11418       -0.42069
H          4.70475      -10.07583        1.04296
H          3.10539       -9.33022        1.09326
H          4.06612       -7.33514        2.33060
H          5.67057       -8.03610        2.23207
H          2.57744       -9.10668       -1.78977
H          3.98845      -10.18873       -1.90994
H          3.90067       -8.70671       -2.89973
H          6.94773       -7.66509       -0.05604
H          6.63411       -7.64752       -1.80045
H          6.74575       -9.19893       -0.93699
H          3.49038        1.27022       -0.73016
H          3.77292        1.10877        1.01619
H          2.39026        2.05987        0.41970
