41

C          1.21784        0.99562        3.94264
C          2.72999        0.77506        3.83566
C          3.11898       -0.37189        2.89600
C          4.63338       -0.61721        2.77823
C          5.04000       -1.74012        1.81479
Al         7.02440       -2.20842        1.61730
C          8.08260       -0.72267        0.64911
C          8.05624        0.70429        1.22359
C          8.63499        0.84767        2.63874
C          9.51949       -1.17865        0.34985
C          7.83577       -2.74761        3.42046
C          7.45942       -4.16243        3.88037
C          8.09868       -4.60947        5.20518
H          0.96745        1.82739        4.61945
H          0.71244        0.09342        4.32117
H          0.78138        1.22443        2.95786
H          3.14481        0.57736        4.83939
H          3.21367        1.70491        3.48899
H          2.71155       -0.17110        1.88789
H          2.63134       -1.30445        3.23533
H          5.02855       -0.82804        3.79025
H          5.11104        0.33273        2.47267
H          4.64456       -1.50800        0.80552
H          4.51985       -2.67225        2.11462
H          7.12473       -3.52495        0.60921
H          7.55614       -0.67273       -0.32642
H          7.01593        1.07314        1.23449
H          8.61430        1.40230        0.55745
H          8.08658        0.21882        3.35522
H          8.58808        1.89088        2.99185
H          9.68976        0.53509        2.67556
H         10.10740       -1.33750        1.26967
H         10.08623       -0.44574       -0.26563
H          9.52349       -2.13823       -0.19027
H          7.55367       -2.02449        4.21191
H          8.93964       -2.67936        3.34832
H          7.73091       -4.88532        3.09091
H          6.36117       -4.24289        3.97720
H          9.19807       -4.58683        5.13316
H          7.80123       -5.63302        5.49526
H          7.81470       -3.93112        6.02602
