55

S          2.15850        0.03447        0.74690
In         4.70817       -0.22778        0.86744
C          5.28573        1.73315       -0.07576
C          4.46401        2.87040        0.04986
C          4.77279        4.08725       -0.56936
C          5.92543        4.22949       -1.36827
C          6.74268        3.08919       -1.52146
C          6.42680        1.88089       -0.89013
Si         6.45006        5.87067       -2.09864
C          8.18059        6.28435       -1.39241
C          8.24506        6.07287        0.12604
C          9.62596        6.29854        0.70941
C          9.76249        6.12769        2.26464
C          9.31761        4.77820        2.95763
C          9.88132        3.36318        2.51560
C         11.41552        3.08325        2.71005
C         11.89760        1.66716        2.21288
F         11.20723        0.67152        2.78876
F         11.79259        1.56286        0.87787
F         13.20156        1.53150        2.54784
F         12.15072        3.99959        2.03126
F         11.71644        3.17055        4.03302
F          9.21402        2.45978        3.28158
F          9.55658        3.15144        1.21639
F          9.59412        4.92662        4.28507
F          7.96916        4.67805        2.81724
F         11.05006        6.38242        2.62838
F          8.97610        7.08652        2.84713
F         10.56378        5.47803        0.12596
F         10.04961        7.59286        0.46905
C          6.61104        5.82029       -3.98420
C          5.24968        7.25494       -1.62173
C          5.21841       -1.84960       -0.59069
C          6.47808       -2.67241       -0.30343
H          1.93565       -0.42081        1.99972
H          5.20497       -0.45325        2.55164
H          3.54357        2.79532        0.63841
H          4.10187        4.94113       -0.42662
H          7.64619        3.14303       -2.14144
H          7.09555        1.02742       -1.04881
H          8.45892        7.31657       -1.65704
H          8.91059        5.62350       -1.88645
H          7.92931        5.04858        0.36900
H          7.55754        6.74918        0.65589
H          7.27517        5.00413       -4.30206
H          7.01783        6.76353       -4.37925
H          5.63044        5.65043       -4.45124
H          5.15971        7.36410       -0.53162
H          4.24266        7.05903       -2.01668
H          5.58896        8.21830       -2.03055
H          5.29159       -1.36627       -1.57882
H          4.33121       -2.50053       -0.63187
H          7.38346       -2.04400       -0.28601
H          6.66046       -3.46783       -1.05254
H          6.42416       -3.16635        0.67971
