53

C          1.03887        0.26689        0.15460
C          2.49170       -0.22172        0.14664
C          2.86364       -1.36477       -0.83350
C          2.71307       -1.11125       -2.38289
C          3.32736        0.21094       -2.87937
C          4.87002        0.52360       -2.65298
F          5.67389       -0.52791       -2.93778
F          5.26513        1.55227       -3.44830
F          5.13595        0.90190       -1.37823
F          3.16736        0.37875       -4.23636
F          2.71852        1.29983       -2.28737
C          3.11894       -2.33836       -3.17962
C          2.70143       -3.61303       -2.71975
C          2.99511       -4.78149       -3.41092
C          3.73048       -4.77576       -4.61445
C          4.13231       -3.51439       -5.08345
C          3.83130       -2.33659       -4.39841
Si         4.15882       -6.37958       -5.46759
C          5.00467       -7.53076       -4.20062
C          6.19107       -6.86936       -3.49081
C          6.90141       -7.76857       -2.50404
F          6.08517       -8.20546       -1.50300
F          7.42109       -8.88920       -3.09551
F          7.95047       -7.13268       -1.90233
C          2.62143       -7.28311       -6.09533
C          5.34915       -6.09656       -6.91195
C          0.96913       -1.04682       -2.69306
O          0.37935       -1.94120       -2.06670
O          0.60981       -0.16549       -3.47546
C          4.22060       -1.96120       -0.39855
H          0.89403        0.98785        0.97449
H          0.33670       -0.56551        0.29720
H          0.76111        0.76564       -0.78143
H          2.72018       -0.62263        1.15012
H          3.16742        0.63569        0.01875
H          2.09547       -2.13360       -0.66686
H          2.09747       -3.67999       -1.81863
H          2.63276       -5.72644       -2.99349
H          4.70155       -3.42901       -6.01304
H          4.16726       -1.40567       -4.84294
H          5.32542       -8.45017       -4.71648
H          4.24976       -7.83449       -3.45823
H          5.86573       -5.97644       -2.93588
H          6.95800       -6.53631       -4.20673
H          1.90553       -7.44067       -5.27632
H          2.87541       -8.26384       -6.52398
H          2.11459       -6.68897       -6.86824
H          6.26892       -5.58852       -6.58990
H          4.88299       -5.47622       -7.69027
H          5.63191       -7.05543       -7.37015
H          5.00371       -1.19877       -0.29609
H          4.58284       -2.72298       -1.10018
H          4.10967       -2.44192        0.58556
