35

C         -0.07208        4.35496        1.72043
C          1.34091        4.51191        1.15240
C          2.34763        3.51871        1.74260
C          3.76404        3.65012        1.16854
C          4.78194        2.68283        1.76194
P          6.47214        2.70380        0.85842
C          8.26747        2.66808       -0.13772
C          8.36602        1.75933       -1.37819
F          8.10043        0.46691       -1.06384
F          7.49356        2.14431       -2.34330
F          9.61128        1.76679       -1.96018
F          8.63984        3.93626       -0.58875
F          9.29701        2.25145        0.70308
C          7.27891        3.94220        2.17131
O          7.53335        3.24958        3.45262
C          7.93444        3.98676        4.46917
F          9.11719        4.66047        4.26171
F          7.03465        4.96140        4.85833
F          8.12685        3.18766        5.55537
H         -0.77457        5.08094        1.28394
H         -0.07785        4.49955        2.81185
H         -0.46777        3.34680        1.52232
H          1.69956        5.53988        1.33274
H          1.31390        4.39072        0.05585
H          1.98375        2.48887        1.57402
H          2.38455        3.64881        2.83938
H          4.11339        4.68881        1.31119
H          3.72426        3.50136        0.07292
H          4.42600        1.64302        1.65985
H          4.92413        2.87506        2.83865
H          6.95554        1.54051        1.61700
H          6.16508        3.92824        0.07640
H          5.90856        1.84328       -0.21023
H          6.54875        4.74570        2.35374
H          8.22805        4.37207        1.82415
