21

N          2.88728        1.33143       -0.54718
C          2.54896        0.01430       -0.00509
C          3.01719       -1.10489       -0.94749
S          2.50496       -2.72985       -0.29650
O          1.05001       -2.76227       -0.29730
O          3.27370       -3.83072       -0.84108
C          2.92288       -2.77255        1.61107
C          2.96604       -4.22379        2.18690
F          1.85759       -4.91310        1.85977
F          4.04617       -4.89583        1.75869
F          3.03076       -4.16934        3.54917
F          4.12464       -2.19414        1.87911
F          1.96147       -2.09092        2.29521
C          2.28956       -1.01273       -2.49639
O          2.66848       -1.87078       -3.29042
O          1.49583       -0.05447       -2.54667
I          5.18494       -1.05548       -1.21344
H          2.58148        2.04742        0.11208
H          2.34268        1.43345       -1.41066
H          1.46102       -0.14615        0.11585
H          3.02592       -0.07908        0.98175
