38

C          2.50448       -0.06193        1.74661
C          2.43304        0.20431        0.23757
Ga         3.32805        1.92748       -0.41866
C          1.97222        3.46976       -0.18329
C          0.78717        3.22282        0.54124
C         -0.26809        4.13724        0.62859
C         -0.18723        5.36399       -0.03706
C          0.95362        5.64594       -0.78952
C          2.01513        4.71903       -0.85084
C          3.20940        5.12898       -1.66715
O          4.35463        5.20289       -1.28920
O          2.90095        5.51325       -2.96365
C          5.14823        2.19008        0.45479
C          6.07556        1.00628        0.16030
C          7.53097        1.17536        0.62732
C          8.40221       -0.04414        0.33462
N          9.79661        0.16321        0.78026
H          2.05999       -1.02932        2.05206
H          1.98801        0.72095        2.32637
H          3.54802       -0.06377        2.10103
H          1.38312        0.18403       -0.10448
H          2.93086       -0.61897       -0.30416
H          3.54342        1.83175       -2.02421
H          0.67993        2.25992        1.04957
H         -1.16101        3.89085        1.21043
H         -0.99989        6.09100        0.02584
H          1.03548        6.60460       -1.31145
H          1.96423        5.28862       -3.10682
H          5.05810        2.33722        1.54550
H          5.57431        3.11952        0.04335
H          6.08131        0.80746       -0.92777
H          5.66711        0.08797        0.62276
H          7.55987        1.38945        1.70895
H          7.96572        2.05993        0.12534
H          8.32302       -0.28588       -0.74499
H          8.00474       -0.91607        0.88128
H         10.17321        0.99132        0.31314
H         10.38105       -0.61923        0.47881
