33

C          1.52953       -1.94186        1.77659
O          2.92172       -1.77771        1.61788
C          3.26789       -1.35967        0.30078
C          4.77322       -1.36732        0.12347
O          5.23401       -2.69379        0.01102
C          6.65787       -2.75864       -0.27564
C          7.12293       -4.18493       -0.34011
Nb         9.12348       -4.82735       -0.96945
S         10.20440       -3.09560        0.44528
O          9.90626       -2.37496        1.69626
O         10.61549       -4.58517        0.63000
C         11.95877       -2.35284       -0.02769
C         11.87374       -1.03346       -0.84160
F         11.13636       -0.11182       -0.18500
F         13.11665       -0.50826       -1.03054
F         11.32503       -1.24011       -2.05017
F         12.60563       -2.08508        1.13958
F         12.69631       -3.24375       -0.72760
Cl         8.75273       -7.19780       -0.81722
H          1.35509       -2.27446        2.80851
H          1.12567       -2.70418        1.08142
H          0.97828       -0.99434        1.60661
H          2.87811       -0.33623        0.11646
H          2.81229       -2.03998       -0.44566
H          5.25102       -0.84427        0.97847
H          5.01557       -0.78437       -0.79224
H          7.19977       -2.20455        0.51513
H          6.84726       -2.24460       -1.23722
H          6.55042       -4.74132       -1.11194
H          6.94992       -4.69801        0.62610
H          8.57318       -3.60664       -2.10068
H         10.37662       -3.95678       -1.83305
H          9.40850       -5.21515       -2.64959
