47

C          1.42002        0.90451        0.86055
C          2.86225        0.72910        0.37296
C          3.22082       -0.72097        0.02950
C          4.64744       -0.91704       -0.49737
C          5.01305       -2.38730       -0.76791
C          6.41502       -2.63906       -1.33160
Ga         6.93882       -4.62254       -1.29891
C          5.76927       -5.81800       -2.49269
C          4.33637       -5.98175       -1.97292
C          3.51198       -7.10801       -2.62078
C          2.09348       -7.24954       -2.05411
C          1.29808       -8.41598       -2.64951
C          8.93928       -4.93114       -1.62116
C          9.39087       -6.32256       -1.16477
C         10.90887       -6.56957       -1.19748
H          1.19267        1.95313        1.10584
H          1.22935        0.30312        1.76283
H          0.69960        0.57869        0.09432
H          3.55877        1.10071        1.14462
H          3.03047        1.36563       -0.51314
H          2.50335       -1.10295       -0.71983
H          3.07593       -1.35120        0.92578
H          5.36763       -0.49974        0.23066
H          4.78222       -0.32830       -1.42353
H          4.25650       -2.81133       -1.45392
H          4.89208       -2.95101        0.17620
H          7.16307       -2.11181       -0.70989
H          6.49919       -2.21002       -2.34704
H          6.64186       -5.12118        0.23815
H          6.26253       -6.80796       -2.52031
H          5.75694       -5.45238       -3.53596
H          3.78538       -5.03087       -2.09573
H          4.36236       -6.15919       -0.88138
H          4.05272       -8.06342       -2.48773
H          3.45752       -6.94490       -3.71325
H          1.54191       -6.30704       -2.21624
H          2.15692       -7.37155       -0.95882
H          1.19175       -8.31129       -3.74075
H          0.28542       -8.48688       -2.22275
H          1.80422       -9.37628       -2.46363
H          9.48549       -4.15834       -1.04808
H          9.20580       -4.77479       -2.68285
H          8.89433       -7.09271       -1.78276
H          9.02724       -6.50144       -0.13688
H         11.31195       -6.43812       -2.21496
H         11.17652       -7.58645       -0.85906
H         11.43480       -5.85258       -0.54630
