71

C         17.38562       -3.61047        3.94145
C         16.95813       -3.96620        2.51568
C         15.43891       -3.96517        2.31733
C         15.00511       -4.30348        0.88820
C         13.48647       -4.32345        0.68908
C         13.05472       -4.66554       -0.74045
C         11.53350       -4.74505       -0.91886
C         11.08062       -5.11903       -2.33789
Si         9.21432       -5.51326       -2.48943
C          8.75919       -6.87315       -1.31682
C          7.71146       -6.77309       -0.36462
C          7.41473       -7.77877        0.54081
C          8.15634       -9.01401        0.60337
C          9.21279       -9.10715       -0.37529
C          9.48467       -8.09452       -1.27972
C          7.85862      -10.05388        1.52467
C          6.85907       -9.82557        2.63754
C          5.41355      -10.23803        2.27656
O          4.44984      -10.14012        3.01969
O          5.33043      -10.74729        1.03615
C          8.76495      -11.26295        1.65058
C         10.11601      -11.04294        2.38019
C          9.98459      -10.65374        3.85559
C         11.32766      -10.43526        4.55874
C         11.19510      -10.04764        6.03550
C         12.54077       -9.81900        6.72893
C          8.21741       -3.93645       -2.12729
C          8.91917       -5.96636       -4.31541
H         18.47964       -3.61641        4.05200
H         16.97339       -4.32592        4.66918
H         17.02631       -2.60974        4.22590
H         17.35629       -4.95971        2.24795
H         17.41574       -3.25600        1.80546
H         15.03606       -2.97543        2.59785
H         14.98103       -4.68597        3.01780
H         15.41972       -5.28790        0.60681
H         15.45619       -3.57526        0.19003
H         13.06730       -3.34163        0.97332
H         13.03872       -5.05485        1.38434
H         13.49759       -5.63506       -1.03071
H         13.47329       -3.91925       -1.44026
H         11.08640       -3.77785       -0.62825
H         11.13065       -5.48705       -0.20870
H         11.62522       -6.02316       -2.66647
H         11.35690       -4.32536       -3.05550
H          7.10092       -5.86437       -0.33251
H          6.57671       -7.62423        1.22331
H          9.83059      -10.00699       -0.40888
H         10.30922       -8.25324       -1.98557
H          6.80433       -8.77935        2.98785
H          7.10855      -10.41465        3.53505
H          6.31306      -10.64739        0.73280
H          8.99828      -11.68079        0.65425
H          8.22315      -12.07035        2.17849
H         10.67872      -10.25443        1.85278
H         10.72359      -11.96594        2.30563
H          9.41836      -11.43719        4.39298
H          9.38353       -9.73294        3.93199
H         11.89084       -9.64757        4.02716
H         11.94111      -11.35154        4.47858
H         10.63530      -10.83586        6.56796
H         10.57985       -9.13583        6.11483
H         13.16614      -10.72440        6.69072
H         12.41512       -9.54515        7.78679
H         13.10557       -9.01055        6.23978
H          8.37664       -3.58269       -1.09879
H          7.13941       -4.11429       -2.25299
H          8.50494       -3.12637       -2.81441
H          9.46465       -6.88387       -4.58188
H          9.24807       -5.16621       -4.99724
H          7.85144       -6.15578       -4.49862
