27

O          0.94235       -0.12148       -0.32480
In         2.51539        0.80713        0.64720
C          3.95582        1.24558       -1.12616
C          4.53350        2.66979       -1.31538
C          5.61510        3.08281       -0.25691
C          5.89849        4.62549       -0.15190
F          6.17665        5.16134       -1.35902
F          4.86036        5.29051        0.38490
F          6.97435        4.82256        0.64787
F          5.23809        2.67584        0.98546
F          6.80105        2.49134       -0.56586
F          5.11429        2.83834       -2.55304
F          3.49590        3.56721       -1.24220
F          5.04857        0.38004       -1.17581
F          3.24623        1.00880       -2.31102
C          3.70285       -0.84588        1.76362
C          3.23698       -1.32969        3.15661
C          1.83532       -2.01535        3.21330
F          1.80991       -3.16702        2.51500
F          1.52844       -2.31527        4.50554
F          0.87371       -1.20140        2.74218
F          4.12112       -2.22757        3.71797
F          3.17823       -0.24748        3.99754
F          3.84078       -1.99570        0.98568
F          5.00850       -0.39028        1.98770
H          1.25695       -0.40648       -1.19585
H          2.01469        2.14679        1.64615
