76

Cl         3.85642        1.08008       -2.30930
Al         3.40692        0.31070       -0.27641
C          1.38762        0.31302       -0.11648
C          0.64120        1.46734       -0.43948
C         -0.74595        1.52646       -0.31152
C         -1.45143        0.40043        0.14513
C         -0.74667       -0.76447        0.47794
C          0.64556       -0.79037        0.35041
C         -2.94431        0.46048        0.27605
C         -3.78862        0.47961       -1.05718
C         -3.63344       -0.68923       -2.10349
C         -4.06186       -2.17366       -1.75215
C         -5.54723       -2.44404       -1.30452
C         -5.98461       -3.95564       -1.40233
F         -5.10409       -4.76145       -0.78180
F         -7.18549       -4.09055       -0.79980
F         -6.11398       -4.35135       -2.68094
F         -5.70401       -2.07009       -0.01240
F         -6.41167       -1.73836       -2.08045
F         -3.85150       -2.88491       -2.90089
F         -3.23470       -2.66352       -0.79876
F         -4.36622       -0.32291       -3.19701
F         -2.33361       -0.76717       -2.47894
F         -5.11803        0.56155       -0.74304
F         -3.46122        1.61255       -1.74236
F         -3.44125       -0.58067        1.02746
F         -3.33762        1.62556        0.91691
C          4.16608       -1.55189       -0.10053
C          5.08408       -1.84905        0.92933
C          5.69610       -3.10055        1.04871
C          5.41430       -4.13958        0.13793
C          4.47991       -3.86492       -0.88158
C          3.88001       -2.60627       -0.99233
Si         6.33912       -5.76627        0.22805
C          6.40841       -6.40235        2.02730
C          5.04009       -6.74796        2.62908
C          5.15469       -7.33196        4.02659
C          3.81627       -7.64981        4.78710
C          2.75921       -8.63920        4.16252
C          3.11541      -10.15337        3.86546
C          3.60744      -11.05695        5.05765
C          3.52731      -12.60505        4.76591
F          4.09661      -12.90797        3.58396
F          4.19224      -13.25796        5.74081
F          2.25523      -13.03880        4.76237
F          4.90008      -10.76943        5.33635
F          2.85155      -10.82431        6.16174
F          1.96123      -10.70514        3.38758
F          4.04252      -10.19704        2.87624
F          1.68722       -8.63799        4.99981
F          2.35455       -8.12719        2.96536
F          4.11936       -8.12532        6.03010
F          3.14544       -6.47166        4.93978
F          5.89679       -8.49424        4.01804
F          5.81515       -6.45924        4.86222
C          5.50845       -7.08180       -0.85054
C          8.13634       -5.54873       -0.32398
H          4.08406        1.27813        0.83945
H          1.16270        2.35449       -0.81083
H         -1.28365        2.44342       -0.55752
H         -1.28466       -1.64155        0.83914
H          1.16893       -1.71189        0.62296
H          5.34133       -1.06752        1.65240
H          6.41565       -3.26318        1.85964
H          4.22365       -4.64148       -1.60915
H          3.17754       -2.43820       -1.81539
H          6.90778       -5.64090        2.64595
H          7.06033       -7.29084        2.04148
H          4.51246       -7.48191        2.00414
H          4.40028       -5.85461        2.68708
H          4.45132       -7.22416       -0.58500
H          6.01941       -8.05071       -0.74988
H          5.54364       -6.79728       -1.91173
H          8.64630       -4.80111        0.30026
H          8.17885       -5.19278       -1.36299
H          8.70087       -6.49097       -0.26005
