29

N          2.04520       -0.15720       -1.03441
C          2.82152       -0.66897        0.10379
Sb         2.94458        0.86745        1.82678
C          2.27489       -0.74436        3.37005
C          3.29710       -1.82591        3.73805
C          4.36544       -1.41943        4.76307
C          1.60872       -0.08483        4.56745
C          5.23949        0.61266        1.98407
N          5.92754        1.02693        0.75343
H          2.49880        0.71121       -1.34272
H          1.14361        0.16692       -0.66054
H          3.83731       -0.92799       -0.23736
H          2.34519       -1.58594        0.48738
H          2.91220        2.15713        3.10314
H          1.17073        1.16353        1.47260
H          3.38331        2.09980        0.49811
H          1.49651       -1.21669        2.74570
H          3.79883       -2.18132        2.82086
H          2.76927       -2.71640        4.14537
H          4.92898       -0.53546        4.43390
H          5.08700       -2.23593        4.92467
H          3.91542       -1.18143        5.73814
H          2.32171        0.51234        5.15834
H          1.14074       -0.81692        5.25914
H          0.81939        0.60765        4.23609
H          5.48826       -0.43550        2.20617
H          5.57272        1.23704        2.83105
H          5.37548        1.79296        0.33539
H          5.85057        0.26918        0.07048
