24

F          4.51681        0.70932       -0.21039
C          3.20660        0.41584       -0.11383
C          2.38755        1.02186       -1.29862
S          2.54096        2.91045       -1.48581
O          2.14079        3.45654       -0.20023
O          3.91116        3.09829       -1.93131
N          1.51664        3.07355       -2.70911
S          0.41266        4.21079       -2.86927
O          0.63754        5.42685       -2.10741
O          0.05948        4.30140       -4.27360
C         -1.14922        3.44040       -2.08040
C         -2.34763        4.43788       -1.91781
C         -3.73880        3.76256       -1.62584
F         -3.66284        2.89241       -0.59903
F         -4.63891        4.72067       -1.29322
F         -4.21490        3.11287       -2.70504
F         -2.09801        5.27745       -0.87963
F         -2.51293        5.17496       -3.04919
F         -1.56193        2.39650       -2.86000
F         -0.84933        2.95262       -0.84906
F          2.82038        0.41498       -2.43825
F          1.08694        0.67494       -1.09725
F          3.08785       -0.94260       -0.13165
F          2.75269        0.84525        1.07713
