72

C          0.76326        0.03054       -0.43732
C          2.29295       -0.02560       -0.47700
C          2.93441        1.21149       -1.11534
C          4.46570        1.16870       -1.13981
C          5.11153        2.41707       -1.74955
C          6.64334        2.38406       -1.74421
C          7.28706        3.65703       -2.30710
C          8.82277        3.64601       -2.28232
Si         9.62067        5.21824       -2.99833
C          9.02261        5.45758       -4.75792
C          8.07311        6.43814       -5.10656
C          7.59852        6.54960       -6.41807
C          8.05442        5.69737       -7.42462
C          8.99665        4.72109       -7.08939
C          9.47117        4.59551       -5.78116
As         7.36427        5.91427       -9.38951
C          8.81769        7.37914       -9.76419
O          8.24828        8.72132       -9.57753
C          9.01130        9.75708       -9.87920
F         10.17819        9.83784       -9.15216
F          9.40794        9.80851      -11.19806
F          8.32038       10.90414       -9.63676
C          6.04946        4.30664       -9.16474
C          5.73427        3.70890      -10.52451
C          5.10107        2.30797      -10.43490
C          4.96579        1.52436      -11.72628
C          4.00871        2.10042      -12.81816
F          4.47148        3.25691      -13.33131
F          3.86089        1.22570      -13.84207
F          2.77845        2.33241      -12.29500
F          6.18409        1.34479      -12.34078
F          4.47766        0.25443      -11.44941
C          9.15220        6.69555       -1.90999
C         11.50195        5.00662       -2.94393
H          0.33544       -0.86938        0.02740
H          0.34094        0.11456       -1.45002
H          0.41135        0.90094        0.13716
H          2.61452       -0.92571       -1.02832
H          2.68341       -0.14625        0.54827
H          2.60426        2.11370       -0.56980
H          2.55467        1.32920       -2.14563
H          4.79682        0.27571       -1.69919
H          4.84075        1.03327       -0.10922
H          4.76683        3.30963       -1.19721
H          4.75286        2.54883       -2.78517
H          6.99482        1.51281       -2.32495
H          7.00127        2.22217       -0.71110
H          6.91096        4.52334       -1.73449
H          6.94160        3.81389       -3.34279
H          9.19915        2.78861       -2.86781
H          9.18977        3.49616       -1.25073
H          7.69914        7.12981       -4.34516
H          6.86058        7.32034       -6.67338
H          9.36921        4.05300       -7.87674
H         10.20607        3.81477       -5.55333
H          6.86633        6.10433      -10.91231
H          6.32347        7.00988       -8.84800
H          8.51515        4.85254       -9.87150
H          9.11710        7.26076      -10.81579
H          9.67037        7.25875       -9.08074
H          5.15312        4.66882       -8.63703
H          6.57702        3.58765       -8.51933
H          6.67143        3.64157      -11.10784
H          5.07401        4.38676      -11.08587
H          4.10409        2.35492       -9.97140
H          5.72076        1.66622       -9.78801
H          8.06415        6.84064       -1.86145
H          9.59566        7.62354       -2.29750
H          9.51813        6.54532       -0.88361
H         11.82476        4.15501       -3.55938
H         11.85184        4.83291       -1.91558
H         12.00267        5.90507       -3.33140
