51

C          8.15800        1.75564        2.85489
C          7.30358        0.80132        2.01608
C          7.76499        0.68964        0.55964
C          6.91532       -0.25484       -0.29671
C          7.39926       -0.38812       -1.74637
C          6.58008       -1.35037       -2.61569
B          7.21570       -1.56507       -4.12073
C          6.11574       -2.27136       -5.12225
C          5.05044       -1.33415       -5.77948
C          3.84392       -1.99385       -6.53786
F          4.24422       -2.86645       -7.48580
F          3.00539       -2.63672       -5.69822
F          3.11254       -1.02660       -7.16528
F          4.47102       -0.52548       -4.83514
F          5.66498       -0.52406       -6.69698
F          6.70517       -2.91960       -6.22691
F          5.37159       -3.29291       -4.49525
C          8.57850       -2.49473       -4.05708
C          9.59482       -2.28503       -5.18876
C         10.96544       -2.94588       -4.97046
C         10.91595       -4.47207       -4.91236
N         12.25407       -5.01556       -4.69774
C         12.49819       -6.36936       -4.60186
N         11.64612       -7.33911       -4.57729
N         13.87632       -6.66684       -4.52513
H          7.80251        1.82046        3.89413
H          8.14568        2.77257        2.43328
H          9.20819        1.42615        2.88146
H          6.25129        1.13293        2.03766
H          7.31239       -0.20196        2.47539
H          8.81627        0.34892        0.53952
H          7.76755        1.69533        0.10164
H          5.86630        0.09381       -0.29337
H          6.90031       -1.25585        0.17184
H          8.45763       -0.70853       -1.72924
H          7.40310        0.61045       -2.22004
H          5.54264       -0.97454       -2.65396
H          6.51724       -2.32702       -2.09523
H          7.48785       -0.46623       -4.62151
H          8.30646       -3.56557       -3.99132
H          9.09340       -2.26953       -3.10188
H          9.75684       -1.20148       -5.31534
H          9.17145       -2.63417       -6.14512
H         11.40444       -2.57527       -4.02734
H         11.65809       -2.65126       -5.78295
H         10.46950       -4.86507       -5.84681
H         10.26797       -4.79406       -4.08335
H         13.00925       -4.46753       -5.10034
H         10.70004       -6.99664       -4.76507
H         14.37540       -6.07155       -3.86687
H         13.99606       -7.64998       -4.29228
