29

C          3.42438        0.66811       -3.41682
C          3.64980        0.43466       -1.91853
C          4.24634        1.64599       -1.18074
C          4.49519        1.44792        0.32034
Al         5.19254        3.05633        1.38405
C          3.98402        4.67607        1.07079
C          2.53241        4.49435        1.54692
C          7.13346        3.50780        0.92133
C          7.44656        3.94395       -0.52083
H          2.99790       -0.21529       -3.91860
H          4.37059        0.91546       -3.92379
H          2.73665        1.51199       -3.58520
H          4.31740       -0.43305       -1.77398
H          2.69447        0.16210       -1.43655
H          3.57239        2.50967       -1.33786
H          5.19066        1.92248       -1.68616
H          5.19514        0.60024        0.46249
H          3.54988        1.12126        0.79839
H          5.13514        2.65534        2.99680
H          3.98230        4.94979       -0.00248
H          4.42941        5.54743        1.58843
H          2.03995        3.65630        1.02407
H          1.88570        5.38252        1.39871
H          2.49658        4.24731        2.62126
H          7.76000        2.63227        1.17923
H          7.46030        4.30267        1.61928
H          7.20543        3.14649       -1.24345
H          8.50703        4.21575       -0.69530
H          6.84370        4.81883       -0.81704
