31

N          1.76394        0.63925        0.65749
C          2.80385       -0.32681        0.23025
B          2.97017       -0.41410       -1.38452
S          1.39486       -1.22276       -2.21929
O          0.19528       -0.68446       -1.55161
O          1.41272       -1.21603       -3.68412
C          1.28951       -3.12586       -1.80229
C         -0.13632       -3.73633       -1.96165
F         -0.66592       -3.44815       -3.16503
F         -0.07104       -5.09768       -1.85812
F         -0.97524       -3.30517       -1.00200
F          2.12219       -3.81423       -2.62922
F          1.68248       -3.35596       -0.51422
C          4.41292       -1.08248       -1.78459
C          4.96335       -1.13054       -3.25542
C          4.99865        0.22943       -4.04469
C          5.91863        0.21968       -5.32371
F          7.22802        0.20726       -5.00243
F          5.66246       -0.83687       -6.11931
F          5.68663        1.34716       -6.03943
F          3.75298        0.54990       -4.46483
F          5.46740        1.23593       -3.25377
F          6.26091       -1.59916       -3.22281
F          4.24054       -2.01449       -3.99084
F          5.41303       -0.40301       -1.08062
F          4.51950       -2.41059       -1.36234
H          1.54548        0.49215        1.64493
H          0.90354        0.43427        0.14348
H          2.66125       -1.33374        0.66876
H          3.77092        0.03218        0.61969
H          2.83867        0.66791       -1.92764
