22

I          0.93672        0.02415        0.03703
N          3.05650       -0.01135        0.03110
C          3.52903        1.12612       -0.70503
C          5.07268        1.06633       -0.68712
C          5.70986        2.23291       -1.44945
C          7.23841        2.25242       -1.42503
N          7.73438        3.41221       -2.16317
C          9.07215        3.70431       -2.31337
N         10.09606        3.00226       -1.95285
N          9.28796        4.94614       -2.94654
H          3.24288        2.13810       -0.29142
H          3.21993        1.17729       -1.79025
H          5.39232        0.10395       -1.12209
H          5.40978        1.06346        0.36360
H          5.34068        3.18318       -1.02051
H          5.37464        2.21511       -2.50025
H          7.63867        1.33818       -1.89478
H          7.59995        2.26385       -0.37793
H          7.11170        4.21525       -2.15652
H          9.80308        2.19538       -1.39587
H          8.69450        5.09445       -3.76030
H         10.27208        5.04129       -3.18514
