29

N          3.61539        1.22433       -0.62513
C          2.71927        0.12935       -0.19109
In         3.41777       -1.91261       -0.80015
C          2.03081       -2.76350       -2.54341
C          0.82255       -1.98884       -3.12543
C          1.14267       -0.74074       -4.00934
F          1.94854        0.13100       -3.38145
F          1.72015       -1.08778       -5.18209
F         -0.01511       -0.08861       -4.31337
F          0.00703       -2.78318       -3.91472
F          0.04477       -1.54625       -2.08467
F          2.77831       -3.16539       -3.67559
F          1.45154       -3.95299       -2.07341
C          5.50416       -2.03737       -1.66940
C          5.74362       -1.72220       -3.14649
S          5.60889        0.07441       -3.48539
C          5.55737        0.04270       -5.29942
H          3.12589        2.12367       -0.62503
H          3.92833        1.07444       -1.58651
H          1.67759        0.24313       -0.54767
H          2.67568        0.12320        0.91074
H          3.20554       -3.14817        0.46180
H          5.80370       -3.08457       -1.50091
H          6.17190       -1.42501       -1.04064
H          5.00611       -2.22758       -3.78640
H          6.75259       -2.02508       -3.48642
H          5.48380        1.08206       -5.64569
H          4.68090       -0.51440       -5.65943
H          6.47231       -0.40308       -5.71729
