22

C          1.01829        0.02485       -0.06139
C          2.54712        0.13884       -0.10178
C          3.05181        1.45892       -0.70966
C          4.55894        1.60270       -0.74316
As         5.17851        3.18471       -1.95284
S          4.73973        4.96190        0.20861
N          7.07189        2.99949       -1.33097
H          0.68916       -0.94397        0.34611
H          0.58612        0.12569       -1.06927
H          0.57678        0.81686        0.56240
H          2.96306       -0.70576       -0.67904
H          2.94886        0.02913        0.92038
H          2.62831        2.31230       -0.15198
H          2.65194        1.55197       -1.73865
H          5.05360        0.71808       -1.18035
H          4.98168        1.80880        0.24849
H          5.41422        2.30755       -3.21863
H          3.66202        3.48588       -2.32655
H          5.65289        4.52748       -2.58900
H          4.68515        4.11111        1.26242
H          7.11691        2.16367       -0.73373
H          7.10450        3.77330       -0.65180
