30

O          3.31361        4.00228       -0.42834
C          4.35559        3.31387       -0.90131
O          5.49123        3.76475       -0.83555
C          4.06914        1.96333       -1.52769
C          5.19528        1.29022       -2.03411
C          5.08023        0.05247       -2.65705
C          3.81682       -0.53475       -2.78287
C          2.69549        0.12135       -2.28011
C          2.78323        1.37492       -1.64095
C          1.53070        1.98682       -1.06824
S          0.31428        2.44199       -2.18300
O          0.60453        1.99276       -3.54253
O         -1.02805        2.27980       -1.62225
C          0.38999        4.32697       -2.39581
F          0.25218        4.96803       -1.21229
F          1.55930        4.71809       -2.95189
F         -0.61285        4.74462       -3.20975
C          1.03332        1.49683        0.23072
O          1.40124        2.46549        1.37679
C          1.09042        2.06545        2.59346
F         -0.25119        1.80016        2.78097
F          1.73326        0.90568        2.98978
F          1.42929        3.02280        3.49449
H          2.47458        3.44407       -0.57725
H          6.16107        1.78414       -1.92143
H          5.96750       -0.45114       -3.04574
H          3.70378       -1.50325       -3.27476
H          1.70847       -0.32990       -2.38733
H          1.49878        0.54562        0.52258
H         -0.05937        1.42926        0.26069
