61

C          8.50298        1.72465        5.44640
C          8.20025        1.30539        4.00621
C          8.76968        2.27122        2.96277
C          8.47573        1.86203        1.51699
C          9.03677        2.83397        0.47461
C          8.73147        2.42950       -0.97026
C          9.27168        3.41057       -2.01869
C          8.94181        3.00572       -3.46231
Si         9.52857        4.17265       -4.84892
C          8.87932        3.53006       -6.48635
C          7.49281        3.36574       -6.68511
C          6.98081        2.87669       -7.89008
C          7.81620        2.52493       -8.96966
C          9.19943        2.69218       -8.76111
C          9.72266        3.17880       -7.55804
Ga         7.11543        1.85821      -10.74588
C          5.10986        1.35041      -10.49637
F          4.27344        2.40917      -10.14911
F          4.52082        0.81837      -11.63977
F          4.85968        0.39282       -9.51528
C          8.10165        0.18577      -11.36166
C          8.09816       -0.98337      -10.37476
C          8.83820       -2.26809      -10.75284
O          8.88553       -3.26002      -10.02075
N          9.46220       -2.24713      -11.97117
C          8.85943        5.91725       -4.51549
C         11.42253        4.24652       -4.85882
H          8.08068        1.01587        6.17299
H          8.08376        2.71788        5.66735
H          9.58762        1.77816        5.62472
H          7.10891        1.22460        3.86654
H          8.60343        0.29504        3.82282
H          9.86205        2.35526        3.10405
H          8.36370        3.28224        3.14534
H          7.38369        1.77277        1.37898
H          8.88574        0.85334        1.33282
H         10.13006        2.91968        0.60762
H          8.62968        3.84336        0.66370
H          7.63901        2.33342       -1.09970
H          9.14647        1.42532       -1.16690
H         10.36529        3.50024       -1.89231
H          8.86240        4.41413       -1.80748
H          7.84921        2.89172       -3.57481
H          9.35912        2.00663       -3.67833
H          6.79242        3.62190       -5.88170
H          5.89729        2.76640       -7.98941
H          9.90077        2.43645       -9.56317
H         10.80762        3.28406       -7.45503
H          7.17176        2.98836      -11.87149
H          9.13466        0.50671      -11.58485
H          7.63675       -0.10440      -12.31978
H          7.06746       -1.29782      -10.14268
H          8.51705       -0.67853       -9.40120
H          9.36081       -1.43933      -12.57491
H          9.92512       -3.08523      -12.29762
H          7.75984        5.92328       -4.52036
H          9.19510        6.60953       -5.30096
H          9.19784        6.31278       -3.54613
H         11.86081        3.25249       -5.02872
H         11.80833        4.62539       -3.90085
H         11.78888        4.91373       -5.65227
