42

N          3.66239       -2.34360        2.16494
C          3.79814       -1.26645        1.16029
C          4.25379       -1.81238       -0.19480
C          4.39795       -0.75274       -1.29541
Al         5.07501       -1.43063       -3.09039
C          3.85692       -2.95648       -3.73133
C          2.40651       -2.51073       -3.93468
C          1.39976       -3.54494       -4.44011
O          0.22362       -3.32900       -4.66382
O          1.91990       -4.79076       -4.63681
C          6.98575       -2.14999       -2.93770
C          8.02139       -1.06243       -2.89951
O          9.37501       -1.58986       -2.73285
C         10.33776       -0.56647       -2.66263
C         11.71532       -1.16241       -2.44797
O         12.21144       -1.71728       -3.66363
C         13.42569       -2.40951       -3.47587
H          3.47090       -1.94740        3.08688
H          4.55603       -2.83385        2.24770
H          4.50152       -0.46555        1.46874
H          2.80991       -0.79041        1.04344
H          3.54105       -2.59808       -0.50145
H          5.22050       -2.33237       -0.04464
H          5.07823        0.04799       -0.94476
H          3.42205       -0.25213       -1.44673
H          5.00394       -0.22887       -4.21798
H          3.92440       -3.77215       -2.98592
H          4.29727       -3.32222       -4.67792
H          2.34956       -1.66488       -4.64057
H          1.97793       -2.11445       -2.99833
H          2.87239       -4.69700       -4.38978
H          7.18611       -2.81856       -3.79343
H          7.06664       -2.76799       -2.02524
H          7.83988       -0.35805       -2.05995
H          8.00301       -0.46420       -3.83245
H         10.12240        0.12369       -1.81594
H         10.34567        0.05046       -3.58709
H         11.65178       -1.94873       -1.67031
H         12.41055       -0.37581       -2.08593
H         13.73216       -2.80485       -4.45349
H         13.31131       -3.25353       -2.76778
H         14.22653       -1.74431       -3.09226
