19

O          1.64035        1.25699        0.47005
Nb         3.32488        0.32830        0.26700
S          4.36856       -1.33251        1.89718
O          3.93367       -0.89452        3.23234
O          4.37965       -2.77701        1.66722
F          6.05565       -0.99717        1.91242
C          3.96791        0.85673       -1.74304
C          3.81839        0.07004       -3.03270
N          2.40114       -0.27635       -3.26742
H          0.79982        0.81973        0.65992
H          2.35443       -1.03805        0.78161
H          4.59467        1.11249        1.25059
H          3.59787       -1.17237       -0.61354
H          5.04280        0.93239       -1.46066
H          3.58578        1.89400       -1.85189
H          4.47191       -0.82081       -2.96341
H          4.15553        0.65117       -3.91304
H          2.09622       -0.84162       -2.46867
H          2.32909       -0.88310       -4.08751
