59

C          1.68318       -3.39994        5.40643
C          2.97212       -3.32404        4.58377
C          3.11157       -2.00919        3.80633
C          4.40797       -1.87780        2.99341
C          4.51380       -2.84818        1.80858
C          5.81038       -2.70623        1.00762
P          7.44423       -3.29397        1.87448
C          7.26605       -5.07698        1.09195
C          7.98628       -5.41323       -0.06326
C          7.80834       -6.63175       -0.71667
C          6.87612       -7.55812       -0.22007
C          6.16329       -7.25519        0.94883
C          6.37012       -6.03278        1.59064
C          6.62636       -8.83721       -0.96139
C          7.67225      -10.00460       -0.79117
C          7.92019      -10.64297        0.62818
C          6.78818      -11.46433        1.37835
C          6.12519      -12.68744        0.63955
C          5.37260      -13.68772        1.59868
F          4.52131      -13.03934        2.41485
F          4.66166      -14.55239        0.84173
F          6.23519      -14.40073        2.34422
F          5.21255      -12.23560       -0.25363
F          7.06760      -13.41527       -0.01586
F          7.39230      -11.95350        2.50280
F          5.80335      -10.62033        1.76760
F          8.97504      -11.49984        0.47742
F          8.28930       -9.66585        1.48771
F          7.33540      -11.03014       -1.63448
F          8.88721       -9.53080       -1.18914
F          5.39640       -9.37887       -0.65330
F          6.62282       -8.61455       -2.32930
C          9.16455       -3.81189        2.79381
C          9.21057       -5.07971        3.57801
O         10.06551       -5.94863        3.51204
O          8.16130       -5.24303        4.45439
H          1.60417       -4.35096        5.95327
H          0.79528       -3.31275        4.76053
H          1.63249       -2.58447        6.14479
H          3.00741       -4.17399        3.88468
H          3.84492       -3.44313        5.24725
H          3.04481       -1.17071        4.52259
H          2.24362       -1.90013        3.12905
H          5.27617       -2.01697        3.65783
H          4.48531       -0.84695        2.60681
H          3.63318       -2.69373        1.15435
H          4.43436       -3.88559        2.17545
H          5.99750       -1.64481        0.76388
H          5.72428       -3.25413        0.05555
H          6.67348       -3.78717        3.10233
H          8.21891       -2.86316        0.69404
H          7.57735       -1.95636        2.50273
H          8.69642       -4.68610       -0.47151
H          8.37298       -6.85999       -1.62181
H          5.43743       -7.96654        1.34450
H          5.81018       -5.81357        2.50434
H          9.28770       -2.96094        3.48107
H          9.98190       -3.80805        2.06096
H          7.46688       -4.58791        4.17689
