38

C          0.28973       -4.55947        2.75260
C          1.73684       -4.36127        3.21201
C          2.61425       -3.64063        2.18278
C          4.06180       -3.41862        2.64713
C          4.95905       -2.70989        1.62441
Ga         6.80096       -2.35634        2.35235
S          7.91311       -1.01647        0.57132
O          7.20681        0.18017        0.10650
O          9.36940       -0.91368        0.70799
F          7.74390       -2.09478       -0.76506
C          8.08009       -3.90878        2.52649
C          8.01345       -4.94935        1.40619
C          8.99464       -6.11313        1.64601
C          8.93372       -7.20682        0.60152
C          9.90540       -8.40102        0.85205
F         11.19099       -7.97733        0.88892
F          9.63316       -9.00438        2.03567
F          9.80694       -9.33724       -0.11848
F          7.67162       -7.76297        0.52534
F          9.23583       -6.73076       -0.65351
H         -0.31383       -5.08163        3.51009
H          0.24640       -5.15116        1.82535
H         -0.19576       -3.59324        2.54650
H          2.18638       -5.34168        3.44618
H          1.74771       -3.79161        4.15732
H          2.16343       -2.66267        1.93638
H          2.62127       -4.21577        1.23963
H          4.49526       -4.40054        2.91373
H          4.03853       -2.84170        3.59013
H          4.51639       -1.74228        1.33823
H          5.03209       -3.30649        0.70090
H          6.88416       -1.30996        3.54711
H          7.87120       -4.38704        3.50116
H          9.09620       -3.48817        2.59931
H          8.23890       -4.47671        0.43880
H          6.99352       -5.35682        1.32285
H          8.79419       -6.57994        2.62343
H         10.02804       -5.73472        1.67337
