24

N          1.28804        0.54816        0.98698
C          2.35984        0.08860        0.08257
C          3.23716       -0.96236        0.75669
C          4.36836       -1.47569       -0.16032
C          5.37289       -2.38529        0.49566
S          5.20945       -4.00472        0.36224
O          4.76260       -4.51301       -0.92984
O          6.30256       -4.70183        1.08042
F          3.86744       -4.54551        1.32340
C          6.37134       -1.83290        1.49783
C          6.07149       -2.02366        2.98898
O          5.82930       -1.11146        3.76344
O          6.12817       -3.29973        3.42684
H          0.82808        1.37543        0.60277
H          1.70341        0.83725        1.87537
H          3.00946        0.91448       -0.27642
H          1.88204       -0.34684       -0.81183
H          2.61868       -1.81244        1.08322
H          3.68071       -0.52830        1.67052
H          4.90583       -0.59690       -0.57204
H          3.92458       -1.99341       -1.02616
H          6.44478       -0.74790        1.33585
H          7.37268       -2.26606        1.31979
H          6.24705       -3.91136        2.64260
