42

C          3.45297       -2.32869       -6.91188
C          3.59472       -0.91581       -6.33688
C          4.31125       -0.87251       -4.98410
C          4.43206        0.53708       -4.39303
C          5.15440        0.58545       -3.03297
B          6.75794        0.16575       -3.01570
C          7.38761        0.32442       -1.49354
C          6.82824       -0.64324       -0.44281
C          7.47498       -0.53769        0.94555
C          6.88452       -1.49605        1.97641
N          7.55935       -1.36455        3.28677
C          7.64818        1.04662       -4.10845
C          7.65916        2.55637       -3.90294
N          8.50035        3.26378       -4.91249
H          2.93059       -2.33212       -7.88140
H          2.88833       -2.97899       -6.22522
H          4.43976       -2.79340       -7.06111
H          2.59276       -0.46058       -6.23471
H          4.14092       -0.28055       -7.05585
H          5.31962       -1.30735       -5.07583
H          3.77190       -1.51940       -4.26643
H          3.41133        0.96744       -4.32310
H          4.97344        1.17083       -5.11974
H          4.58493       -0.05592       -2.32924
H          5.03847        1.61354       -2.62976
H          6.88059       -1.03899       -3.33503
H          7.24655        1.35784       -1.10931
H          8.48781        0.17875       -1.53790
H          6.94135       -1.67784       -0.81687
H          5.73959       -0.48348       -0.33636
H          7.38713        0.49443        1.32551
H          8.56007       -0.73746        0.85203
H          6.92549       -2.52714        1.56966
H          5.81761       -1.25958        2.12668
H          8.56129       -1.52590        3.15836
H          7.23678       -2.09543        3.92410
H          7.32108        0.84686       -5.14725
H          8.70023        0.69183       -4.05903
H          7.98893        2.77838       -2.86905
H          6.63552        2.95839       -3.99828
H          9.40526        2.78656       -4.94651
H          8.69991        4.21773       -4.59678
