12

F          1.03414       -0.01095       -0.15420
C          2.40352        0.06068       -0.01350
O          2.81072        0.38647        1.20163
C          2.36864        1.68558        1.71495
S          3.02578        1.95382        3.41163
O          2.46084        0.86236        4.21696
O          4.48743        1.92947        3.26350
O          2.44932        3.28545        3.67664
F          2.89578       -1.16167       -0.33213
F          2.81591        0.92756       -1.00282
H          1.27323        1.70111        1.77017
H          2.75859        2.48301        1.07057
