54

C          9.76931       -3.25606       -0.73330
C          9.61305       -1.93469        0.02434
C          8.16537       -1.62722        0.41921
C          7.99502       -0.31952        1.20100
C          6.53889       -0.02108        1.58688
B          6.23892        1.28800        2.51740
S          5.93175        2.91836        1.48374
O          4.73749        2.75780        0.64013
O          6.04497        4.13638        2.30017
C          7.26314        3.23453        0.11749
F          8.53705        3.26107        0.60713
F          7.23361        2.29335       -0.86162
F          7.03138        4.43332       -0.46434
C          7.21794        1.48199        3.78116
C          8.43313        2.19851        3.80227
C          9.24659        2.25227        4.93348
C          8.87167        1.57642        6.10552
C          7.66944        0.85417        6.11983
C          6.87042        0.81953        4.97814
C          9.75694        1.61750        7.31385
C          9.81145        2.96134        8.13876
C          8.49177        3.56362        8.75466
C          7.68641        2.80487        9.88997
C          8.43664        2.42380       11.22183
C          7.47807        2.09029       12.42836
F          6.54707        1.18411       12.07791
F          8.21973        1.57322       13.43184
F          6.86285        3.19257       12.89185
F          9.20126        1.32609       11.01104
F          9.23124        3.44853       11.62874
F          6.66864        3.65243       10.22986
F          7.13825        1.67929        9.37389
F          8.83482        4.77997        9.27494
F          7.60083        3.77128        7.75537
F         10.70113        2.81589        9.16934
F         10.29401        3.93529        7.31596
F          9.43804        0.62885        8.21933
F         11.08215        1.41104        6.96152
H         10.81748       -3.45364       -1.00321
H          9.18028       -3.25105       -1.66346
H          9.41512       -4.10385       -0.12671
H         10.00296       -1.10685       -0.59203
H         10.23930       -1.95498        0.93280
H          7.76769       -2.46428        1.02239
H          7.54116       -1.58979       -0.49190
H          8.41079        0.50578        0.60030
H          8.61576       -0.36678        2.11289
H          6.15461       -0.88914        2.15529
H          5.91449        0.02344        0.67735
H          5.07497        1.26491        2.90373
H          8.75467        2.73885        2.91200
H         10.18257        2.81169        4.90320
H          7.36300        0.32094        7.01987
H          5.93192        0.26021        5.01235
