36

C          1.76234        0.05201        0.05109
Nb         3.77919        0.68930        0.65957
C          4.63050        1.72644       -1.09074
C          5.77687        1.22394       -1.73838
C          6.28441        1.80252       -2.91524
C          5.64920        2.89360       -3.50332
C          4.49679        3.40370       -2.88509
C          4.00794        2.83784       -1.70687
C          3.84098        4.60835       -3.49750
F          4.59886        5.74406       -3.34832
F          3.65179        4.46985       -4.84919
F          2.62349        4.89034       -2.96477
C          7.49078        1.19455       -3.57146
F          8.49132        0.92409       -2.68277
F          7.20147        0.00064       -4.18351
F          8.03622        1.99005       -4.53843
C          4.82416       -1.20642        1.08603
C          6.20527       -1.33795        1.72463
C          6.59817       -2.79874        1.97513
S          8.17810       -3.06685        2.88573
H          1.13069        0.89214       -0.28065
H          1.19351       -0.51119        0.80722
H          1.93188       -0.61428       -0.82347
H          4.28960        2.30750        1.14826
H          4.42923        0.89640        2.28207
H          2.68832        1.47233        1.79241
H          6.30514        0.35873       -1.32528
H          6.03946        3.34109       -4.41576
H          3.12657        3.28559       -1.24201
H          4.79430       -1.74537        0.11011
H          4.06200       -1.69677        1.72879
H          6.22820       -0.78422        2.67501
H          6.97243       -0.86927        1.08171
H          6.63314       -3.36994        1.03629
H          5.85078       -3.28313        2.62225
H          8.98226       -2.42641        2.00406
