42

N          2.91581       -0.20840        1.31605
Nb         2.38505       -0.05044       -0.64464
C          3.89805       -0.67295       -2.15685
C          5.29722       -0.73345       -1.93236
C          6.20624       -1.10637       -2.92074
C          5.78651       -1.44392       -4.22949
C          4.39413       -1.38072       -4.47046
C          3.49152       -1.01191       -3.47242
Si         6.97366       -2.00027       -5.54525
C          6.98267       -3.90943       -5.73042
C          5.59476       -4.51306       -5.97071
C          5.59980       -6.01011       -6.17602
F          6.10854       -6.69314       -5.11119
F          4.34023       -6.50054       -6.38666
F          6.34101       -6.38916       -7.26560
C          6.51523       -1.28336       -7.24320
C          8.76260       -1.51241       -5.14957
C          0.43221        0.96298       -0.72774
N          1.25335        1.79534        0.16357
H          2.81240        0.53963        2.00274
H          3.38850       -1.00529        1.73070
H          1.30374       -1.31034       -1.34418
H          3.01323       -1.71547       -0.49885
H          3.07056        1.39147       -1.55529
H          5.68940       -0.48601       -0.93971
H          7.27308       -1.13250       -2.67049
H          4.00098       -1.61840       -5.46694
H          2.42534       -0.99032       -3.72296
H          7.41286       -4.33478       -4.80964
H          7.66216       -4.18139       -6.55544
H          5.11755       -4.08745       -6.86708
H          4.92486       -4.30393       -5.12318
H          5.47785       -1.52189       -7.51958
H          7.17344       -1.67002       -8.03594
H          6.60106       -0.18751       -7.22879
H          9.09914       -1.95802       -4.20240
H          8.86031       -0.42148       -5.05783
H          9.44633       -1.85167       -5.94223
H         -0.42709        0.53018       -0.20352
H          0.11460        1.47516       -1.64393
H          0.91977        1.89011        1.12264
H          1.55259        2.68704       -0.21762
