31

C          0.72603       -2.44465        0.38387
C          2.25054       -2.53314        0.50237
C          2.88280       -1.18710        0.87291
C          4.42310       -1.13749        0.82788
C          4.99192       -1.21563       -0.67220
O          4.14636       -1.13572       -1.60144
O          6.24811       -1.30726       -0.75213
C          4.93660        0.20244        1.41287
C          4.52669        1.46372        0.63685
C          5.25505        2.68876        1.18170
S          4.74122        4.29677        0.45337
C          5.06638       -2.28997        1.62458
N          4.65111       -2.32383        3.05278
H          0.27656       -3.41898        0.13490
H          0.43689       -1.73235       -0.40443
H          0.26954       -2.09885        1.32611
H          2.67598       -2.85900       -0.45867
H          2.51000       -3.28867        1.26204
H          2.53652       -0.90265        1.88483
H          2.50627       -0.43538        0.16258
H          6.03832        0.14307        1.42423
H          4.59102        0.32029        2.45944
H          3.44022        1.62805        0.69698
H          4.76957        1.32969       -0.42933
H          6.34253        2.58295        1.06182
H          5.05528        2.82116        2.25739
H          4.96699        3.95649       -0.83776
H          6.15646       -2.20660        1.47988
H          4.75944       -3.24896        1.17853
H          5.00845       -1.48935        3.52286
H          5.11558       -3.11019        3.51219
