10

N          0.96502        0.21202       -0.10917
C          0.61989       -0.04509        1.26635
C         -0.90510        0.01915        1.43273
S          2.58406        0.56013       -0.30841
H          1.09337        0.67152        1.98907
H          0.95833       -1.06072        1.62485
H         -1.27011        1.02524        1.17141
H         -1.21683       -0.21620        2.46518
H         -1.38894       -0.69349        0.74598
H          3.29312       -0.66985       -0.27499
