33

O          4.67111        0.52171        2.04685
C          4.18516        1.51795        1.24036
O          3.43025        2.34943        1.70826
C          4.69879        1.47973       -0.18150
B          4.94559        0.00333       -0.85654
S          3.27318       -0.73579       -1.51991
O          2.64816        0.19256       -2.48914
O          3.44089       -2.13919       -1.94619
C          2.12684       -0.79747       -0.10838
C          5.96502        0.04329       -2.10211
C          7.10407       -0.78424       -2.13669
C          8.04218       -0.70283       -3.17011
C          7.86709        0.20433       -4.22143
C          6.73371        1.01691       -4.21636
C          5.79703        0.93632       -3.17590
C          6.50476        2.00735       -5.32592
F          7.50858        2.01015       -6.25249
F          5.34899        1.76776       -6.00812
F          6.41048        3.29033       -4.85914
C          9.25803       -1.58585       -3.19107
F          9.41370       -2.31467       -2.05504
F          9.23324       -2.48231       -4.22758
F         10.41529       -0.86726       -3.35482
H          5.12950       -0.10634        1.43994
H          5.68939        1.97014       -0.14147
H          4.05842        2.13553       -0.78814
H          5.33207       -0.83747       -0.03691
H          1.92325        0.21616        0.25534
H          2.55909       -1.42245        0.68139
H          1.21285       -1.25598       -0.50588
H          7.25951       -1.50084       -1.32959
H          8.60071        0.27796       -5.02287
H          4.90996        1.57197       -3.20473
