59

N          1.02452        0.22872       -0.01730
C          2.42950       -0.27795       -0.04695
C          3.16594        0.08827       -1.32327
Ga         5.02705       -0.75916       -1.37117
C          6.02497       -0.18647        0.31258
C          6.81893        0.97561        0.37669
C          7.47646        1.36987        1.54509
C          7.36327        0.62014        2.73392
C          6.57134       -0.54555        2.68490
C          5.93004       -0.93159        1.50490
Si         8.33044        1.08303        4.25948
C         10.11341        0.42136        4.08024
C         10.15290       -1.06854        3.72116
C         11.54606       -1.64736        3.61937
F         12.31148       -1.02897        2.67602
F         12.23932       -1.55693        4.79812
F         11.52048       -2.97422        3.29339
C          8.44026        2.95698        4.48723
C          7.57133        0.31710        5.81598
C          6.14312       -0.34760       -3.02307
C          7.55259       -0.94424       -2.93025
C          8.35533       -0.94132       -4.24202
C          9.80034       -1.43591       -4.10099
C         10.54950       -1.55165       -5.43411
C         12.02642       -1.93022       -5.28451
H          0.52071       -0.20032        0.76581
H          0.55434       -0.10451       -0.86330
H          2.47124       -1.37745        0.09264
H          2.94494        0.16312        0.82309
H          3.21775        1.18430       -1.43236
H          2.61432       -0.30135       -2.19963
H          4.84280       -2.36962       -1.25380
H          6.93259        1.59691       -0.51867
H          8.08659        2.28011        1.52982
H          6.45292       -1.16395        3.58132
H          5.33578       -1.85171        1.50748
H         10.66813        0.61029        5.01372
H         10.60950        1.00624        3.28944
H          9.65589       -1.25054        2.75647
H          9.62457       -1.68067        4.46825
H          8.91343        3.43772        3.61966
H          9.02825        3.21486        5.38021
H          7.43530        3.38740        4.60004
H          7.54080       -0.78029        5.76374
H          6.53936        0.66846        5.95455
H          8.15225        0.59477        6.70771
H          6.20302        0.73839       -3.21759
H          5.60779       -0.78503       -3.88561
H          7.49146       -1.98681       -2.56585
H          8.13018       -0.40451       -2.15765
H          8.36162        0.08093       -4.66289
H          7.82470       -1.56692       -4.98347
H          9.80606       -2.41852       -3.59497
H         10.35305       -0.75325       -3.43005
H         10.47079       -0.59381       -5.97745
H         10.04016       -2.29764       -6.06880
H         12.57410       -1.17011       -4.70611
H         12.52493       -2.02753       -6.26085
H         12.14262       -2.88835       -4.75473
