33

C          0.80174       -0.78933       -1.63439
C          2.28993       -0.85448       -1.28817
Nb         3.05983       -2.32808        0.12780
S          1.80582       -3.89053        1.58746
O          0.51935       -4.28898        0.96888
O          2.66885       -4.96951        2.12200
C          1.16156       -3.12773        3.24559
F          2.16096       -2.68341        4.05115
F          0.30067       -2.09482        3.06185
F          0.49034       -4.08770        3.93784
C          5.18075       -1.83361        0.19296
C          5.80908       -0.57721        0.80285
C          5.94037       -0.63673        2.32792
C          6.34045        0.69876        2.94675
N          6.50438        0.57264        4.40708
H          0.58322       -0.11744       -2.48508
H          0.22303       -0.43833       -0.76895
H          0.40320       -1.78108       -1.89730
H          2.66277        0.13115       -0.94876
H          2.88865       -1.11911       -2.19257
H          2.89457       -3.99855       -0.51319
H          3.37517       -1.98258        1.81068
H          1.75087       -1.50574        0.93864
H          5.35766       -1.85440       -0.91042
H          5.65249       -2.75143        0.59574
H          5.20318        0.30719        0.53138
H          6.81278       -0.38646        0.37325
H          6.67936       -1.40388        2.61209
H          4.97382       -0.96286        2.74784
H          5.58826        1.46031        2.65490
H          7.30674        1.03348        2.53003
H          5.64447        0.18921        4.80619
H          6.62631        1.49465        4.82913
