38

O          2.20085        4.74164        1.23392
C          3.05117        3.76722        1.59047
O          3.47689        3.69092        2.73067
C          3.53787        2.85639        0.49216
C          4.93552        2.74989        0.39927
C          5.53761        1.98003       -0.59292
C          4.73254        1.29520       -1.50572
C          3.34386        1.37815       -1.40308
C          2.70507        2.14084       -0.40363
C          1.20171        2.07295       -0.30090
S          0.38518        3.21788       -1.23841
O          1.23326        4.43233       -1.27324
O         -0.17995        2.79138       -2.51551
C         -1.26227        3.83349       -0.41764
C         -1.23321        4.56591        0.96100
F         -0.69635        3.81753        1.93123
F         -0.56178        5.72949        0.87180
F         -2.51481        4.86328        1.32843
F         -1.77630        4.73104       -1.30995
F         -2.13245        2.79534       -0.32345
C          0.59709        0.84462        0.25656
C          0.02892       -0.29671       -0.67899
C         -0.68152       -1.55677       -0.03544
C          0.06200       -2.39236        1.06505
F          0.09861       -1.75316        2.24301
F         -0.61970       -3.55388        1.25201
F          1.31474       -2.70874        0.68807
F         -1.88168       -1.19516        0.48761
F         -0.92638       -2.42958       -1.06654
F         -0.90868        0.22527       -1.51436
F          1.05292       -0.78761       -1.44558
F          1.55293        0.19883        1.02824
F         -0.48489        1.11101        1.10917
H          1.92740        4.65113        0.27483
H          5.53910        3.28328        1.13517
H          6.62583        1.91492       -0.65074
H          5.18225        0.69201       -2.29696
H          2.71814        0.83500       -2.10978
