13

N          1.21952       -0.32479       -0.08542
B          2.47957       -0.23786        0.66285
S          3.35448        1.56472        0.53640
O          2.31310        2.56193        0.77336
O          4.64510        1.77021        1.17333
F          3.66879        1.72641       -1.10429
S          3.70873       -1.63399        0.09214
O          5.11564       -1.38259        0.33884
O          3.16977       -2.94768        0.40330
F          3.55778       -1.53037       -1.56903
H          1.28429       -0.14660       -1.08484
H          0.46417        0.22934        0.30793
H          2.42305       -0.36130        1.86740
