25

N          1.52013       -0.61678        0.48160
In         3.28185        0.29028        1.11266
S          3.28506        2.48192       -0.47216
O          2.77254        2.19259       -1.82436
O          2.65698        3.59164        0.27533
C          5.11353        3.09529       -0.87559
C          5.75711        4.03865        0.16932
F          5.15024        5.23979        0.18551
F          5.68509        3.49465        1.40376
F          7.07481        4.24970       -0.10914
F          5.87878        1.96943       -0.96088
F          5.12014        3.72241       -2.07987
S          5.03811       -1.63895        0.38681
O          4.29763       -2.60789       -0.44575
O          6.41387       -1.29214       -0.00566
C          5.22941       -2.67609        2.06164
C          6.40292       -2.28379        2.98916
F          7.58735       -2.60456        2.43926
F          6.38102       -0.95852        3.24479
F          6.31784       -2.93264        4.18732
F          4.06074       -2.48291        2.75660
F          5.33873       -3.99511        1.76613
H          1.79995       -1.45360       -0.04123
H          1.07182       -0.01093       -0.21223
H          3.78800        0.88213        2.65512
