33

C          4.27690        0.84115        2.89011
C          4.19487        0.41514        1.41950
C          4.70522       -1.01210        1.15733
C          4.68174       -1.46108       -0.30744
Ga         5.40333       -3.36457       -0.59096
C          3.96083       -4.60355       -1.34419
C          3.00557       -4.19511       -2.29338
C          2.04806       -5.06900       -2.82681
C          1.99618       -6.41198       -2.43045
C          2.93396       -6.84202       -1.47738
C          3.88295       -5.95748       -0.95400
C          0.97410       -7.36366       -3.00715
C          7.03040       -3.39005       -1.81922
H          3.91569        1.86984        3.04835
H          5.31437        0.79186        3.25673
H          3.67615        0.17500        3.52929
H          4.77427        1.12099        0.79840
H          3.15071        0.49337        1.06858
H          4.11309       -1.71582        1.77108
H          5.73480       -1.09196        1.55346
H          5.28186       -0.75916       -0.91548
H          3.64798       -1.39925       -0.69476
H          5.81468       -3.98948        0.85426
H          3.00079       -3.15387       -2.63542
H          1.32852       -4.70505       -3.56959
H          2.91636       -7.88615       -1.14219
H          4.59007       -6.33297       -0.20550
H          0.31628       -6.85085       -3.72385
H          0.33617       -7.80410       -2.22362
H          1.45351       -8.20320       -3.53704
H          6.81221       -2.97287       -2.81550
H          7.39439       -4.42040       -1.95989
H          7.85441       -2.80395       -1.38035
