20

N          0.94520       -0.11590       -0.16613
C          2.41347       -0.03663        0.00005
C          3.09517       -1.29994       -0.51120
C          4.62021       -1.26628       -0.35953
N          5.19657       -2.50639       -0.81983
C          6.47206       -2.66732       -0.68204
C          7.00917       -4.02129       -1.20004
F          6.43508       -5.08114       -0.56071
F          6.76448       -4.19547       -2.53104
F          8.35480       -4.16176       -1.03819
F          7.39820       -1.65669       -1.32391
F          7.06168       -2.57587        0.71535
H          0.49448        0.65699        0.32769
H          0.61112       -0.97078        0.28526
H          2.71939        0.13410        1.05236
H          2.76729        0.83532       -0.57595
H          2.83642       -1.46249       -1.56962
H          2.71290       -2.17699        0.04199
H          4.86250       -1.06604        0.70743
H          5.00874       -0.39064       -0.92578
