30

C          0.86752       -1.41949       -2.57110
C          2.35477       -1.69324       -2.31716
C          3.07611       -0.61075       -1.49983
B          4.64860       -0.96042       -1.12710
C          5.23082       -0.01084        0.13466
C          5.40280        1.44438       -0.14667
O          6.44045        2.08443       -0.14991
O          4.22818        2.11942       -0.45281
C          5.61983       -0.91723       -2.45438
C          7.07406       -1.36932       -2.17247
C          7.86872       -1.74751       -3.40586
O          8.84277       -1.13339       -3.84271
N          7.43514       -2.90981       -4.03101
H          0.38951       -2.21750       -3.16379
H          0.72561       -0.47014       -3.11221
H          0.31752       -1.33517       -1.61969
H          2.86648       -1.81850       -3.28756
H          2.46648       -2.65931       -1.79476
H          2.49101       -0.46466       -0.56511
H          2.98099        0.33855       -2.07273
H          4.67410       -2.12345       -0.67671
H          6.19667       -0.39110        0.49445
H          4.50272       -0.11991        0.95817
H          3.53906        1.43860       -0.57620
H          5.65441        0.08659       -2.91961
H          5.18198       -1.57966       -3.22635
H          7.03972       -2.24805       -1.50347
H          7.62903       -0.57650       -1.65508
H          6.48715       -3.22005       -3.84365
H          7.77667       -3.05135       -4.97584
