31

N          2.72514        1.19222       -0.20306
C          2.26718       -0.10930        0.31045
In         3.26890       -1.88548       -0.55147
S          1.79215       -2.73942       -2.73174
O          2.20311       -2.26039       -4.06758
O          1.52245       -4.18318       -2.58143
C         -0.05224       -2.02447       -2.54493
C         -0.31506       -0.63378       -3.16848
F         -0.28555       -0.67974       -4.51103
F         -1.54085       -0.14809       -2.80462
F          0.60774        0.26076       -2.74275
F         -0.92419       -2.90510       -3.10441
F         -0.32931       -1.94277       -1.20321
C          5.41422       -1.50100       -1.34723
C          5.79684       -1.26183       -2.83306
C          5.26973        0.07899       -3.45302
C          5.34818        0.18096       -5.02126
F          6.60757       -0.04485       -5.45967
F          4.51826       -0.67150       -5.62895
F          5.00419        1.44169       -5.38935
F          3.96467        0.26827       -3.11370
F          5.99722        1.12006       -2.96083
F          7.16613       -1.24931       -2.99268
F          5.31669       -2.30401       -3.57132
F          5.96759       -0.43917       -0.62791
F          6.17090       -2.61983       -0.98625
H          2.11326        1.94136        0.13061
H          2.66951        1.21963       -1.22027
H          1.18022       -0.28561        0.22108
H          2.51437       -0.17181        1.38307
H          3.32080       -3.40930        0.30416
