11

N          0.93706        2.21813       -1.24983
C          0.43907        0.89641       -1.18509
C         -1.12177        0.74201       -1.26524
N         -1.59416        1.60638       -2.36263
F          0.47023        2.80538        0.12783
H          0.78879        0.27769       -0.31015
H          0.87048        0.43667       -2.10081
H         -1.53576        1.02876       -0.28047
H         -1.38918       -0.31755       -1.44863
H         -0.86733        2.35886       -2.34759
H         -2.47236        2.05474       -2.09832
