58

S          0.56922       -0.91371       -0.17576
B          2.20327        0.08127       -0.58696
C          2.72856        0.82669        0.78368
C          4.00690        1.71434        0.62805
C          4.43058        2.62506        1.83550
F          4.57553        1.92835        2.98115
F          5.63288        3.20909        1.56294
F          3.54808        3.62234        2.05497
F          5.08630        0.91404        0.37010
F          3.85826        2.57314       -0.42910
F          1.75267        1.69642        1.29351
F          3.02476       -0.03954        1.84003
C          3.23261       -1.00267       -1.20056
C          3.70178       -0.88449       -2.52413
C          4.52425       -1.84739       -3.11325
C          4.92917       -2.99681       -2.40447
C          4.47930       -3.11384       -1.07357
C          3.65800       -2.14596       -0.49195
Si         5.97432       -4.32126       -3.21904
C          7.80031       -3.78244       -3.35223
C          8.71288       -4.76370       -4.10270
C         10.18717       -4.34586       -4.17178
C         11.04775       -5.33185       -4.96729
C         12.53385       -4.96935       -5.03200
C         13.36178       -5.95791       -5.85808
C         14.85503       -5.62390       -5.91936
C         15.66019       -6.61859       -6.75859
C          5.89146       -5.93148       -2.22100
C          5.32321       -4.66829       -4.96745
H         -0.19482        0.13566        0.20716
H          1.96192        0.96224       -1.39479
H          3.39420       -0.01233       -3.10764
H          4.84260       -1.70450       -4.15169
H          4.76352       -3.98760       -0.47908
H          3.31928       -2.28456        0.53735
H          8.17700       -3.61970       -2.32728
H          7.82914       -2.79161       -3.83788
H          8.34000       -4.89989       -5.13295
H          8.65641       -5.76141       -3.63214
H         10.58669       -4.24681       -3.14710
H         10.26144       -3.34154       -4.62462
H         10.64929       -5.40953       -5.99474
H         10.94184       -6.34011       -4.52813
H         12.94236       -4.91578       -4.00741
H         12.64599       -3.95571       -5.45577
H         12.95747       -6.00056       -6.88526
H         13.23514       -6.97403       -5.44335
H         15.26135       -5.59044       -4.89430
H         14.98250       -4.60729       -6.32847
H         15.57660       -7.63844       -6.35342
H         16.72767       -6.35758       -6.78707
H         15.29586       -6.64719       -7.79671
H          6.30298       -5.80161       -1.20958
H          6.45915       -6.73505       -2.71275
H          4.85082       -6.26969       -2.11561
H          5.36777       -3.76746       -5.59655
H          4.27208       -4.98717       -4.92449
H          5.89932       -5.45922       -5.46986
