39

Cl         3.77309       -1.60132       -0.90932
B          2.60036       -0.10750       -0.46274
C          3.49521        1.19407       -0.12385
C          4.70640        1.49543       -0.78452
C          5.42587        2.66146       -0.53707
C          4.95549        3.59151        0.40743
C          3.76055        3.32078        1.09234
C          3.05952        2.14408        0.82538
C          5.73210        4.84061        0.67210
C          5.60272        6.01121       -0.37868
C          4.20356        6.68981       -0.63689
C          3.47525        7.54388        0.48405
C          4.24399        8.75976        1.12549
C          3.31547        9.78647        1.88003
F          2.52186        9.16644        2.77229
F          4.10133       10.66151        2.54497
F          2.54817       10.48540        1.02504
F          5.13955        8.30234        2.03197
F          4.89945        9.46554        0.16629
F          2.36056        8.05163       -0.12679
F          3.06551        6.72622        1.48139
F          4.37879        7.53150       -1.70085
F          3.31149        5.73764       -1.00146
F          6.47022        7.01925       -0.04509
F          5.99204        5.52593       -1.59219
F          5.42760        5.39873        1.89803
F          7.09633        4.58755        0.68777
C          1.61086        0.14444       -1.74133
C          0.51050        1.18791       -1.50058
H          1.96215       -0.45175        0.52904
H          5.09691        0.76771       -1.49996
H          6.36447        2.84999       -1.06109
H          3.39303        4.02175        1.84330
H          2.14256        1.93975        1.38493
H          1.14492       -0.82118       -2.00358
H          2.20781        0.44014       -2.62428
H         -0.12341        0.89940       -0.64599
H         -0.15254        1.31933       -2.37311
H          0.93459        2.17671       -1.26289
