19

C          1.16296       -0.15577       -0.43748
C          2.45696        0.07895        0.35403
Ga         2.91800       -1.46559        1.58264
C          1.68112       -1.71844        3.17700
C          1.55388       -0.54459        4.15595
N          2.76806       -0.23080        4.93735
Cl         5.05499       -0.92894        2.41843
H          0.92703        0.65563       -1.15210
H          0.29181       -0.25102        0.23213
H          1.21317       -1.09091       -1.02008
H          2.38727        1.01163        0.93728
H          3.30831        0.20768       -0.33362
H          3.12129       -2.84110        0.77369
H          1.98953       -2.62610        3.72659
H          0.68763       -1.95086        2.74483
H          0.73739       -0.71127        4.88711
H          1.27565        0.37184        3.60512
H          3.55020       -0.14412        4.27452
H          3.01088       -1.06643        5.47820
