32

C          2.18818       -1.28757        0.48987
C          3.32637       -0.27875        0.30538
C          3.02934        1.19153        0.67600
C          2.60744        1.37385        2.17073
C          2.49316        2.83318        2.59039
C          1.25815        3.49670        2.50185
C          1.12384        4.83290        2.89246
C          2.21291        5.55981        3.38762
C          3.44707        4.89462        3.47657
C          3.59071        3.56358        3.08670
C          2.06918        6.99939        3.82000
C          3.54771        0.52006        3.14222
O          4.75734        0.88592        3.09706
O          3.00484       -0.39888        3.78382
F          1.27250        0.85450        2.22603
C          4.22020        2.06413        0.25686
H          2.48725       -2.27156        0.09493
H          1.28005       -0.97155       -0.04705
H          1.93274       -1.40312        1.55003
H          3.64151       -0.28197       -0.75399
H          4.20275       -0.60304        0.88945
H          2.14124        1.51945        0.10145
H          0.38850        2.94811        2.14108
H          0.14547        5.31795        2.81810
H          4.31642        5.42912        3.87214
H          4.54318        3.03941        3.18434
H          1.03032        7.34380        3.71783
H          2.70401        7.66974        3.21807
H          2.36631        7.13786        4.87166
H          5.09895        1.80922        0.86548
H          4.01097        3.13413        0.38692
H          4.45435        1.88874       -0.80505
