25

N          1.02039       -0.00183        0.11505
C          2.50261       -0.01439        0.05186
C          3.04826       -1.43295       -0.06787
C          4.58259       -1.50941       -0.04514
N          5.05731       -2.82776       -0.16231
C          6.46303       -2.83666       -0.13255
C          7.04376       -4.25390       -0.25384
C          8.56786       -4.29486       -0.25419
N          9.07617       -5.68891       -0.25402
H          0.69177        0.92461        0.39660
H          0.72461       -0.64112        0.85717
H          2.97171        0.47234        0.93069
H          2.80096        0.57429       -0.83201
H          2.67945       -1.90355       -0.99371
H          2.66809       -2.04909        0.76878
H          4.92637       -0.98126        0.91170
H          4.97087       -0.80591       -0.86056
H          6.90571       -2.37861        0.81985
H          6.94487       -2.19895       -0.95222
H          6.65069       -4.72475       -1.16948
H          6.65716       -4.85010        0.59431
H          8.93730       -3.70634        0.60986
H          8.95402       -3.80122       -1.16173
H          8.62247       -6.19540        0.51075
H         10.07579       -5.69546       -0.03890
