32

C          1.59423        1.70476        1.87367
C          1.91044        0.73758        0.73073
C          2.84030       -0.42145        1.10818
In         1.96469       -1.67605        2.71027
S          4.02506       -3.45658        3.16714
O          5.15228       -3.14438        2.26046
O          4.33916       -3.59488        4.60535
C          3.59192       -5.29859        2.57879
C          2.91909       -6.20740        3.63283
F          3.76445       -6.51845        4.63120
F          1.83022       -5.59696        4.15674
F          2.49495       -7.38091        3.07682
F          2.73811       -5.17958        1.51843
F          4.72750       -5.91379        2.15385
S         -0.16144       -2.70641        1.54638
O         -1.07781       -1.53202        1.62888
O         -0.00155       -3.32994        0.21091
C         -0.95944       -3.99092        2.57116
C          3.21418       -1.28526       -0.10054
H          0.99296        2.55663        1.52352
H          2.51616        2.10497        2.32405
H          1.02158        1.20991        2.67339
H          2.38714        1.30457       -0.09495
H          0.96854        0.34161        0.31710
H          3.76018       -0.01171        1.55949
H          1.48016       -1.47194        4.37399
H         -1.06018       -3.61488        3.59623
H         -0.34944       -4.90077        2.53650
H         -1.94542       -4.16090        2.11762
H          2.33379       -1.78231       -0.53427
H          3.94486       -2.06010        0.16717
H          3.66534       -0.66020       -0.89465
