70

N          2.36378        4.44967       -1.21316
C          1.84475        3.25088       -1.62380
O          0.62977        3.07976       -1.72741
C          2.85501        2.14385       -1.90713
C          4.30703        2.57821       -2.14122
C          5.31244        1.43209       -2.45867
C          4.92212        0.73556       -3.74970
C          4.84011        1.46860       -4.95195
C          4.51249        0.85467       -6.15837
C          4.26610       -0.53324       -6.24525
C          4.32474       -1.25796       -5.04221
C          4.63342       -0.63705       -3.82775
Si         4.06509       -1.39356       -7.89951
C          5.81284       -1.71246       -8.60316
C          6.65111       -0.43426       -8.74972
C          8.11896       -0.71315       -9.02002
C          9.03243        0.53309       -9.31644
C          9.03377        1.77339       -8.34231
C          9.38181        1.63471       -6.80181
C         10.81760        1.12662       -6.41472
C         11.17339        1.24782       -4.88359
F         10.28829        0.59925       -4.12420
F         12.39509        0.68023       -4.70605
F         11.25324        2.53007       -4.49893
F         10.93673       -0.18359       -6.74924
F         11.75444        1.83843       -7.10203
F          9.24135        2.88758       -6.29923
F          8.46567        0.81702       -6.23844
F          9.88827        2.68309       -8.88911
F          7.78023        2.31306       -8.37823
F         10.31966        0.11149       -9.45940
F          8.62908        1.04364      -10.52411
F          8.68796       -1.40454       -7.98058
F          8.26491       -1.51394      -10.13902
C          3.21848       -3.07329       -7.71034
C          3.07936       -0.32866       -9.11494
C          6.74261        2.19090       -2.59700
O          7.15758        2.67635       -1.49901
O          7.27384        2.25246       -3.72080
C          5.40405        0.48304       -1.23977
C          6.60085       -0.50845       -1.25029
C          7.47220       -0.47128        0.01000
O          7.70099       -1.48597        0.68206
N          7.97402        0.75267        0.30656
H          1.72285        5.21476       -1.04337
H          3.36180        4.61805       -1.18843
H          2.46196        1.58876       -2.77140
H          2.78743        1.45213       -1.05088
H          4.71885        3.08317       -1.25195
H          4.33558        3.30749       -2.96680
H          5.06861        2.53346       -4.94255
H          4.46309        1.47690       -7.05708
H          4.12853       -2.33370       -5.03952
H          4.66102       -1.25038       -2.92730
H          5.74529       -2.24254       -9.56626
H          6.30947       -2.39838       -7.89795
H          6.59868        0.16235       -7.82776
H          6.27546        0.19794       -9.56781
H          3.79908       -3.74883       -7.06664
H          3.10306       -3.56319       -8.68822
H          2.21883       -2.96435       -7.26605
H          3.52621        0.66693       -9.24875
H          2.05275       -0.17982       -8.75057
H          3.02377       -0.80599      -10.10438
H          4.46718       -0.08469       -1.12281
H          5.48757        1.12609       -0.35332
H          7.25409       -0.28860       -2.11069
H          6.26895       -1.54840       -1.35569
H          7.76207        1.57395       -0.29737
H          8.56788        0.83051        1.12321
