37

C          0.71798        0.11364        0.52825
C          2.22083        0.26506        0.78024
C          2.99261       -1.05524        0.69176
C          4.50878       -0.90836        0.86414
C          5.26571       -2.24598        0.82119
C          6.77954       -2.12993        0.89767
Sb         7.77796       -4.12122        1.15050
C          8.73603       -6.18420        1.46707
C          7.77266       -7.19191        2.07012
C          8.20200       -8.64988        2.22429
O          7.51228       -9.50149        2.79245
N          9.41514       -8.96335        1.67369
N          7.03444       -4.06038        3.22386
H          0.18958        1.07587        0.60441
H          0.26106       -0.57659        1.25388
H          0.52546       -0.29435       -0.47599
H          2.38466        0.71411        1.77495
H          2.64370        0.98064        0.05386
H          2.78506       -1.53097       -0.28385
H          2.60463       -1.75426        1.45415
H          4.72279       -0.40725        1.82520
H          4.89972       -0.23697        0.07800
H          4.97906       -2.78938       -0.09763
H          4.91527       -2.87400        1.65976
H          7.09313       -1.58266        1.79871
H          7.20898       -1.64636        0.00526
H          6.24786       -4.99223        0.70030
H          8.40093       -4.12299       -0.55124
H          9.27816       -3.32974        1.77424
H          9.61036       -5.99413        2.10906
H          9.07030       -6.46402        0.45484
H          6.83176       -7.21516        1.48885
H          7.46287       -6.87211        3.07907
H          9.99002       -8.22403        1.28443
H          9.77734       -9.90092        1.79140
H          7.83804       -4.23417        3.83833
H          6.40920       -4.86062        3.37005
