23

N          1.05730        0.09576        0.00161
C          2.54254        0.13857       -0.03380
C          3.09520       -0.54983       -1.28581
N          4.49812       -0.61435       -1.27846
C          4.97800       -1.22329       -2.45106
C          6.52011       -1.28401       -2.50160
C          7.06295       -2.02529       -1.27603
C          7.02630       -1.89731       -3.81214
H          0.73006        0.25180        0.95700
H          0.77891       -0.86267       -0.23274
H          3.01491       -0.34856        0.84081
H          2.86318        1.19333       -0.03139
H          2.65563       -0.02273       -2.19244
H          2.58050       -1.58066       -1.32707
H          4.63667       -0.71125       -3.41354
H          4.60533       -2.29818       -2.60010
H          6.87003       -0.23647       -2.44374
H          6.77737       -3.09161       -1.31576
H          6.60162       -1.58997       -0.37869
H          8.16305       -1.97093       -1.20481
H          6.69936       -2.94709       -3.90334
H          8.12733       -1.88575       -3.87574
H          6.62836       -1.35151       -4.68264
