34

N          0.86596       -1.91301       -0.12401
C          2.32508       -2.09420        0.00043
C          3.04236       -1.09759       -0.91879
C          4.57007       -1.32309       -0.92926
S          5.23468        0.01982       -1.98739
O          5.33486       -0.43260       -3.38449
O          4.61578        1.30829       -1.73127
C          7.11141        0.24880       -1.53113
C          7.68009        1.60217       -2.07911
F          7.41425        1.76096       -3.39092
F          7.19387        2.65302       -1.40370
F          9.03362        1.60344       -1.93057
F          7.34882        0.21782       -0.20908
F          7.81834       -0.75893       -2.12526
C          5.07759       -1.12764        0.65376
O          4.76207       -0.02950        1.14171
O          5.63472       -2.13907        1.11968
C          5.03192       -2.67390       -1.51285
C          4.24709       -3.23654       -2.73002
C          5.14744       -3.98886       -3.70232
O          5.14742       -5.21535       -3.82749
N          5.96307       -3.17466       -4.43836
H          0.38729       -2.52584        0.53757
H          0.56277       -2.20936       -1.05444
H          2.65430       -3.12632       -0.22215
H          2.60936       -1.88322        1.04086
H          2.84222       -0.08128       -0.55874
H          2.61958       -1.18390       -1.93614
H          4.99112       -3.37464       -0.66852
H          6.10146       -2.61080       -1.75493
H          3.76516       -2.41989       -3.28567
H          3.46804       -3.93665       -2.40418
H          5.99431       -2.17367       -4.24863
H          6.67721       -3.60732       -5.01104
