32

C          8.15138       -0.46475       -0.53106
S          7.02353       -1.25056        0.65408
C          5.95792        0.18081        1.07424
C          4.82870       -0.24436        2.00754
In         5.40613       -0.87713        4.11255
C          4.23767        0.61974        5.38661
O          4.85898        1.97244        5.22412
C          4.24498        2.99675        5.78709
F          4.05470        2.88078        7.14588
F          4.98293        4.12480        5.59143
F          2.98905        3.26071        5.27490
C          7.59261       -0.37811        4.39924
C          7.96211        0.30410        5.71752
C          9.42553        0.69302        5.95663
O          9.85656        1.06354        7.05231
N         10.23108        0.63176        4.85180
H          8.84673       -1.23805       -0.88372
H          8.73258        0.34161       -0.05996
H          7.60681       -0.05898       -1.39662
H          5.60162        0.59312        0.10995
H          6.59801        0.94610        1.54473
H          4.20468       -1.00749        1.51657
H          4.18326        0.63461        2.17187
H          4.91652       -2.51771        4.58961
H          4.23720        0.39946        6.46454
H          3.19224        0.70690        5.05090
H          7.83123        0.27360        3.54112
H          8.15758       -1.31410        4.26255
H          7.68621       -0.31260        6.58811
H          7.38978        1.23855        5.84621
H          9.87099        0.20804        4.00279
H         11.22099        0.81079        4.96174
