17

Br         4.09202        1.51652       -0.80282
B          2.83424        0.42765        0.30452
S          3.92627       -0.86761        1.27779
O          4.69390       -1.63473        0.29675
O          4.60329       -0.32481        2.45315
C          2.79575       -2.25678        2.08083
C          1.66599       -2.89428        1.22256
F          2.13366       -3.32272        0.03340
F          1.14402       -3.97434        1.87154
F          0.66132       -2.02755        1.00575
F          3.67955       -3.25253        2.38551
F          2.24868       -1.81190        3.23455
S          1.75143        1.54611        1.43497
O          1.02070        2.52454        0.65236
O          1.04085        0.78402        2.44484
F          2.84673        2.43163        2.27733
H          2.03862       -0.19231       -0.34894
