54

C          4.80920        2.44828       -2.31636
S          4.06290        1.76783       -0.78262
O          5.17969        1.77179        0.20098
O          2.92729        2.69253       -0.50401
In         3.09772       -0.64775       -1.32856
C          1.98140       -0.08003       -3.17719
C          2.08483       -0.82208       -4.37037
C          1.41712       -0.45514       -5.54094
C          0.60289        0.68792       -5.54450
C          0.48739        1.45485       -4.37602
C          1.17358        1.07359       -3.21987
C         -0.12519        1.08128       -6.79709
C         -1.33969        0.17542       -7.23888
C         -2.54365       -0.06187       -6.24985
C         -3.49892        1.12446       -5.81436
C         -4.26114        1.92632       -6.93631
C         -5.51153        2.73153       -6.41257
F         -5.19344        3.48874       -5.34714
F         -5.94098        3.54354       -7.40221
F         -6.52287        1.90975       -6.07990
F         -3.41701        2.82345       -7.49884
F         -4.71761        1.08152       -7.89802
F         -4.44566        0.54151       -5.01852
F         -2.80201        2.00570       -5.05979
F         -3.33926       -1.00591       -6.83474
F         -2.06048       -0.58236       -5.09446
F         -1.86470        0.66951       -8.40081
F         -0.85276       -1.07082       -7.50732
F         -0.61100        2.36656       -6.73126
F          0.72064        1.03802       -7.89335
C          4.80401       -1.99177       -1.84406
C          5.75901       -1.47023       -2.91978
C          6.81071       -2.52437       -3.32282
C          7.74158       -2.08308       -4.43335
C          8.80771       -3.14341       -4.84894
F          9.60830       -3.45693       -3.80181
F          8.21065       -4.28451       -5.27101
F          9.59374       -2.69283       -5.85091
F          7.04367       -1.78087       -5.58391
F          8.44617       -0.95199       -4.08516
H          5.10465        3.47679       -2.06876
H          4.05913        2.43933       -3.11623
H          5.68653        1.84884       -2.58899
H          2.14013       -1.05106        0.08072
H          2.71285       -1.71780       -4.40280
H          1.53626       -1.04531       -6.45082
H         -0.12779        2.35526       -4.37520
H          1.09100        1.70890       -2.33357
H          4.35359       -2.94660       -2.16796
H          5.35228       -2.20556       -0.91345
H          6.27910       -0.56995       -2.55938
H          5.20423       -1.16606       -3.82096
H          6.30836       -3.44406       -3.66051
H          7.42960       -2.79354       -2.45315
