34

C          3.11802       -0.73370       -0.30297
C          3.14415       -0.18477        1.13175
C          2.53144        1.19934        1.26650
Sb         1.69966        1.49956        3.37533
S          4.26574        1.97545        4.59728
O          5.05842        3.07831        4.00749
O          4.08550        1.97768        6.06630
C          5.45466        0.44673        4.36280
F          4.78893       -0.72025        4.56619
F          5.97662        0.40027        3.10571
F          6.49298        0.48912        5.22994
C         -0.50898        1.06214        2.80425
C         -1.49670        2.20994        2.46270
C         -1.31892        2.90187        1.06889
F         -1.64763        2.06866        0.05930
F         -2.13969        3.97863        0.99512
F         -0.05776        3.32816        0.87477
F         -2.79926        1.76536        2.48691
F         -1.38297        3.17917        3.41898
F         -0.55952        0.15791        1.75016
F         -1.07357        0.41509        3.88865
C          3.41612        2.37225        0.88171
H          3.55755       -1.74180       -0.35419
H          3.68288       -0.08971       -0.99397
H          2.08577       -0.79902       -0.67973
H          4.18238       -0.16413        1.49703
H          2.60852       -0.89243        1.79415
H          1.58259        1.23747        0.70431
H          1.86751       -0.26914        3.65866
H          1.21432        1.75879        5.03699
H          1.69045        3.26660        3.06115
H          4.41047        2.29980        1.34503
H          2.97640        3.32922        1.20983
H          3.55364        2.44004       -0.21127
