35

N          2.18418        0.07196        1.38680
C          1.82858       -1.35392        1.39372
C          2.82954       -2.14384        0.54500
Al         4.75557       -1.69075        0.90331
S          5.09780        0.28730       -0.65519
O          6.16273        0.02491       -1.64994
O          3.81657        0.81859       -1.18101
C          5.82333        1.81479        0.37851
C          6.59485        2.87415       -0.46310
C          6.86357        4.25004        0.25021
F          5.73097        4.96190        0.41141
F          7.43375        4.07238        1.46055
F          7.71259        4.99638       -0.50136
F          7.81233        2.37870       -0.81173
F          5.89335        3.16356       -1.59504
F          4.79730        2.43818        1.02913
F          6.67376        1.30749        1.31896
C          6.05673       -3.00844        0.10544
C          5.79103       -3.41134       -1.33612
S          6.88806       -4.79801       -1.87032
C          6.35552       -4.98726       -3.59657
H          1.45710        0.64677        1.81290
H          2.33084        0.40718        0.43044
H          0.78414       -1.54186        1.05475
H          1.88061       -1.70378        2.44059
H          2.61339       -1.97999       -0.52575
H          2.68782       -3.22677        0.71283
H          5.19296       -1.20714        2.37921
H          5.99529       -3.89584        0.76494
H          7.08343       -2.62086        0.20806
H          5.97341       -2.56545       -2.01451
H          4.75390       -3.75501       -1.47949
H          6.94506       -5.80077       -4.03998
H          6.53447       -4.06595       -4.16887
H          5.28930       -5.25005       -3.65892
