35

S          2.50203       -2.37397        1.50570
C          3.64107       -1.08462        0.82998
C          4.11446       -1.49720       -0.56577
C          5.06198       -0.47117       -1.19941
Al         5.69613       -0.93931       -3.06544
C          4.39531       -2.19557       -4.04308
C          4.69238       -3.57384       -4.12784
C          3.87687       -4.49272       -4.79801
C          2.70862       -4.06155       -5.43315
C          2.38279       -2.70620       -5.39647
C          3.21171       -1.79302       -4.71231
C          2.80474       -0.35221       -4.67045
O          2.93753        0.39156       -3.72525
O          2.21629        0.13162       -5.82695
C          7.49678       -1.92585       -2.96188
O          7.47224       -3.13871       -2.07508
C          8.61427       -3.77175       -1.89144
F          9.19145       -4.26260       -3.04573
F          9.60133       -3.01344       -1.29811
F          8.40930       -4.84520       -1.07761
H          2.23625       -1.77581        2.69124
H          4.49637       -0.97931        1.51207
H          3.10205       -0.12828        0.78296
H          3.23061       -1.63804       -1.21016
H          4.60373       -2.48387       -0.49378
H          5.94326       -0.32844       -0.54600
H          4.55347        0.50678       -1.25962
H          6.07551        0.34304       -4.00837
H          5.59664       -3.94826       -3.64054
H          4.14887       -5.55136       -4.81961
H          2.05273       -4.77138       -5.94134
H          1.44976       -2.36865       -5.85980
H          2.29628       -0.56480       -6.50275
H          8.26545       -1.25154       -2.54729
H          7.86057       -2.26543       -3.94631
