9

I          1.14180        0.13444        0.18390
N          3.19394       -0.22461        0.04407
S          3.50458       -1.77276       -0.25446
O          3.21673       -2.72759        0.83637
O          3.12605       -2.27840       -1.59068
C          5.31626       -1.59089       -0.28872
H          5.66376       -1.22264        0.68199
H          5.59967       -0.90859       -1.09648
H          5.70064       -2.60067       -0.48013
