28

N          4.94004       -0.06707       -2.20997
C          4.16351       -1.30984       -2.03256
C          4.64773       -2.10824       -0.82145
C          4.50894       -1.36984        0.51861
B          4.95679       -2.14113        1.86243
S          3.79261       -3.64204        2.32786
O          3.03895       -4.16234        1.18183
O          4.37097       -4.59245        3.27879
C          2.35998       -2.77560        3.35501
C          2.59234       -2.59824        4.88327
F          3.72974       -1.92567        5.13860
F          1.56349       -1.88130        5.42958
F          2.63366       -3.78392        5.51574
F          2.08722       -1.54418        2.82971
F          1.25040       -3.55113        3.20822
S          6.76204       -2.79760        1.68527
O          6.91915       -4.06029        0.98383
O          7.63488       -1.69107        1.32002
F          7.19203       -3.13583        3.24260
H          4.73635        0.35345       -3.11746
H          5.93779       -0.29145       -2.21077
H          4.19731       -1.97053       -2.92325
H          3.10695       -1.02513       -1.88620
H          5.70261       -2.38979       -0.98933
H          4.08624       -3.05318       -0.78289
H          3.45595       -1.06472        0.64711
H          5.08177       -0.43018        0.47962
H          4.97564       -1.46826        2.86581
