15

I          2.67820       -3.82408       -2.08052
N          2.75642       -2.22163       -0.72831
S          3.29721       -0.85248       -1.29618
O          3.12615       -0.54295       -2.71429
O          2.96559        0.17595       -0.30747
C          5.21771       -0.91002       -1.12339
C          5.96405        0.46594       -1.19115
C          7.51626        0.38163       -1.43822
F          8.11680       -0.45816       -0.56819
F          7.80679       -0.02252       -2.69032
F          8.07168        1.61116       -1.27017
F          5.46888        1.23535       -2.19916
F          5.80359        1.13433       -0.01556
F          5.54554       -1.47974        0.07607
F          5.73369       -1.71257       -2.11166
