25

S          6.84939        2.13078        0.57070
C          5.46656        0.92900        0.30555
C          5.97769       -0.30205       -0.44747
C          4.88339       -1.34670       -0.69960
Al         5.54735       -2.97159       -1.71077
C          4.09228       -4.35105       -2.02264
C          3.53320       -4.93902       -0.74129
S          2.24359       -6.22818       -1.06014
C          1.87126       -6.75124        0.63999
Cl         7.09851       -3.94659       -0.41169
H          6.12815        3.09932        1.18410
H          4.67497        1.42976       -0.26980
H          5.06279        0.63802        1.28537
H          6.80314       -0.75652        0.12629
H          6.41619        0.02478       -1.40647
H          4.05855       -0.88682       -1.27853
H          4.44315       -1.66118        0.26520
H          6.24937       -2.53221       -3.11868
H          4.51863       -5.15174       -2.65154
H          3.28605       -3.88194       -2.61550
H          3.06181       -4.16634       -0.11246
H          4.32726       -5.41947       -0.14885
H          1.13055       -7.56043        0.58809
H          1.45100       -5.92490        1.23225
H          2.77391       -7.13014        1.14162
