44

N          0.62286        0.77712        1.10568
C          2.06813        0.79405        0.80383
C          2.82940       -0.17804        1.70083
C          4.33942       -0.15315        1.44494
C          5.08349       -1.14994        2.34197
C          6.63829       -1.06067        2.43957
C          7.35902       -1.88842        1.35438
C          7.11644       -1.73560       -0.21286
C          7.29494       -0.43321       -1.09680
C          8.76348        0.18053       -1.25978
F          9.64458       -0.24658       -0.35651
F          9.25992       -0.17461       -2.48443
F          8.70342        1.52107       -1.23850
F          6.92761       -0.85206       -2.36648
F          6.41516        0.52907       -0.77543
F          7.95350       -2.65312       -0.80869
F          5.83190       -2.14890       -0.46494
F          8.71581       -1.85786        1.52006
F          7.01566       -3.24684        1.53126
C          7.09680        0.46298        2.41814
O          6.66702        1.14805        3.37573
O          7.81929        0.80419        1.44678
C          6.99259       -1.65134        3.83975
C          8.45512       -1.67147        4.30146
C          8.54549       -1.94953        5.80069
N          9.95163       -2.05870        6.23358
H          0.13962        1.47223        0.53401
H          0.48231        1.06598        2.07638
H          2.52452        1.79870        0.90300
H          2.19306        0.49393       -0.24931
H          2.42371       -1.19319        1.55157
H          2.63564        0.08219        2.75808
H          4.72592        0.85787        1.64482
H          4.51641       -0.36233        0.38279
H          4.79139       -2.18217        2.08476
H          4.72512       -0.97486        3.36785
H          6.56052       -2.66312        3.92956
H          6.44199       -0.99107        4.52644
H          8.93763       -0.70827        4.08073
H          9.02608       -2.44683        3.76694
H          7.94791       -2.85619        6.03393
H          8.08570       -1.11489        6.35446
H         10.41573       -2.78727        5.68657
H          9.99974       -2.35838        7.20855
