36

C          0.62163       -0.37286        0.65390
C          1.95966        0.20016        0.17101
C          2.96413        0.51538        1.28686
B          4.39318        1.12168        0.75016
C          5.20850        0.01420       -0.15923
C          5.47854       -1.19522        0.52947
C          6.18546       -2.26173       -0.01773
C          6.67223       -2.17241       -1.32784
C          6.43880       -1.00678       -2.04410
C          5.72727        0.07638       -1.48442
C          5.61404        1.26061       -2.42031
O          6.12139        1.26553       -3.53702
O          4.94072        2.33951       -1.99500
C          5.37355        1.64845        1.96620
C          6.66728        2.25542        1.42991
C          7.65693        2.80654        2.43673
O          7.50308        2.93951        3.62862
O          8.86500        3.20462        1.88035
H         -0.07799       -0.55649       -0.17781
H          0.12752        0.31461        1.35925
H          0.76888       -1.32830        1.18252
H          1.77254        1.12057       -0.40915
H          2.41831       -0.50602       -0.54287
H          3.11840       -0.39893        1.89396
H          2.50546        1.24645        1.98103
H          4.05845        2.16513        0.14024
H          5.11245       -1.29229        1.55468
H          6.35942       -3.16334        0.57586
H          7.22781       -2.99742       -1.77864
H          6.80390       -0.88807       -3.06487
H          4.57842        2.17354       -1.05824
H          5.62980        0.82786        2.66090
H          4.84689        2.40153        2.57627
H          6.43522        3.08223        0.73044
H          7.20403        1.51117        0.81145
H          8.82617        3.01521        0.92592
