33

C          6.09558       -2.26742       -2.09079
C          5.63014       -2.35518       -0.63510
C          5.12273       -1.01846       -0.08058
C          4.60423       -1.11274        1.35305
Nb         5.82537       -1.68168        3.10978
S          3.95294       -2.71893        4.40566
O          5.20662       -3.14803        5.14132
O          2.82621       -2.21812        5.21998
C          3.23852       -4.44800        3.90550
F          4.16839       -5.32874        3.47706
F          2.60087       -5.02225        4.95936
F          2.32004       -4.30262        2.90797
C          7.67624       -2.99242        3.23989
C          8.22758       -2.34692        4.49437
N          7.66499       -0.96319        4.42739
H          6.46263       -3.23554       -2.46464
H          6.91213       -1.53645       -2.20133
H          5.27576       -1.94406       -2.75215
H          6.45318       -2.71283        0.00525
H          4.83319       -3.11243       -0.54290
H          4.33851       -0.63987       -0.77071
H          5.95118       -0.28937       -0.11537
H          3.66751       -1.69754        1.37668
H          4.35315       -0.09216        1.72489
H          6.78276       -0.49760        2.07546
H          5.07065       -0.73936        4.44525
H          5.32436       -3.25172        2.47232
H          8.30067       -2.80417        2.35076
H          7.48109       -4.06562        3.33505
H          9.33028       -2.33767        4.63312
H          7.78583       -2.82438        5.37965
H          8.22217       -0.35078        3.83536
H          7.50192       -0.51710        5.32913
