28

Cl         1.65876        0.61555        0.56203
Nb         4.01153        0.80266        0.65351
S          4.09399       -1.64871        0.32130
O          3.47103       -2.37104        1.45086
O          3.64212       -2.00636       -1.04087
C          5.86916       -2.49595        0.38003
C          7.01013       -2.02287       -0.56730
F          6.58954       -1.88531       -1.83844
F          7.55674       -0.85954       -0.16198
F          8.02113       -2.94841       -0.57608
F          6.36237       -2.45337        1.65045
F          5.62505       -3.80562        0.07054
C          4.67204        2.40284       -0.61807
C          5.00913        2.39460       -2.10825
C          3.81165        1.91952       -2.94223
C          5.50966        3.76372       -2.59949
H          5.24356        0.20525       -0.43042
H          5.22909        0.00054        1.63769
H          4.42829        1.59243        2.19317
H          5.57432        2.63282       -0.00324
H          3.92359        3.19629       -0.38302
H          5.82409        1.66438       -2.24668
H          2.94002        2.57521       -2.78381
H          3.51894        0.89775       -2.66289
H          4.04623        1.92625       -4.01822
H          4.72900        4.53253       -2.47712
H          5.78520        3.73309       -3.66618
H          6.39156        4.09252       -2.02975
