28

N          1.17724        1.05221        0.23674
C          2.35283        0.14003        0.05889
C          3.30935        0.61281       -1.01564
In         5.16980       -0.65681       -1.34745
C          6.41311       -0.37200        0.56080
C          6.63006        1.08838        0.97752
C          7.49646        1.91922        0.02438
C          5.78129       -1.15228        1.71801
C          6.17691        0.33792       -3.09860
H          0.43788        0.57209        0.76121
H          0.78668        1.23584       -0.69164
H          2.03027       -0.89653       -0.16624
H          2.86444        0.10030        1.03577
H          3.66329        1.63279       -0.78537
H          2.78734        0.66844       -1.98936
H          4.79585       -2.39384       -1.58811
H          7.40695       -0.81232        0.34951
H          7.10009        1.12576        1.98866
H          5.65291        1.59194        1.10135
H          8.47693        1.44079       -0.13288
H          7.68063        2.93062        0.42203
H          7.02726        2.02368       -0.96327
H          4.78088       -0.75999        1.96897
H          6.38043       -1.09028        2.65446
H          5.65147       -2.21857        1.47776
H          7.26699        0.18470       -3.09410
H          5.99085        1.42272       -3.04470
H          5.78461       -0.02011       -4.06283
