23

C          2.43693       -1.58684       -0.56929
C          2.38072       -0.16233        0.00958
C          2.93251       -0.08073        1.44597
Al         2.80284        1.66728        2.48049
C          0.83027        2.30053        2.51002
C         -0.14730        1.41701        3.16786
O         -0.77915        1.62570        4.19050
O         -0.33637        0.18250        2.54055
F          3.39365        1.38779        4.07196
C          3.09853        0.81787       -0.93009
H          1.89607       -2.29605        0.07486
H          3.48361       -1.92815       -0.63048
H          2.00252       -1.64326       -1.58268
H          1.31010        0.13392        0.01381
H          4.01029       -0.33991        1.41465
H          2.47553       -0.88374        2.05683
H          3.62991        2.89404        1.77658
H          0.62012        2.37575        1.42900
H          0.78688        3.30311        2.95245
H          0.35349        0.09935        1.85675
H          4.16502        0.55019       -1.01214
H          3.05382        1.84610       -0.54559
H          2.66787        0.79954       -1.94459
