60

C         10.04824       -5.38075        0.54842
C          9.18473       -4.12313        0.66937
C          9.73432       -3.11220        1.67946
C          8.88620       -1.84510        1.81805
C          9.45794       -0.84084        2.82211
C          8.64732        0.45174        2.94670
C          9.24273        1.44343        3.95324
C          8.47753        2.77096        4.05178
Si         9.17908        4.03558        5.28895
C          8.23571        5.65398        5.11387
C          8.28163        6.36648        3.89818
C          7.60563        7.57843        3.73346
C          6.84581        8.13061        4.78076
C          6.79092        7.42036        5.99228
C          7.47224        6.20875        6.15741
In         5.84772       10.06895        4.59785
S          5.56304       10.37950        1.92971
O          4.84752       11.59048        1.49110
O          6.83787       10.04577        1.25234
C          4.38004        8.97245        1.31059
F          4.89497        7.74170        1.55858
F          3.18065        9.04583        1.94539
F          4.15797        9.07283       -0.01836
S          7.66882       11.88472        5.01379
O          7.28962       13.26710        4.65193
O          8.14039       11.65347        6.40344
C          9.08302       11.47218        3.94300
C          9.01855        3.35312        7.04781
C         11.01167        4.32972        4.90877
H          9.63464       -6.08933       -0.18315
H         10.12518       -5.90384        1.51348
H         11.07084       -5.12992        0.22825
H          8.15843       -4.40532        0.95944
H          9.09751       -3.63798       -0.31758
H         10.76126       -2.83038        1.38624
H          9.82632       -3.59914        2.66672
H          7.86062       -2.12160        2.11969
H          8.79062       -1.35981        0.83081
H         10.49326       -0.58905        2.53067
H          9.53342       -1.32154        3.81381
H          7.60969        0.21329        3.23970
H          8.57798        0.93865        1.95814
H         10.29173        1.64111        3.67201
H          9.28584        0.95829        4.94447
H          7.42439        2.58364        4.32512
H          8.44039        3.25547        3.06060
H          8.86055        5.97409        3.05538
H          7.67015        8.09604        2.77258
H          6.21386        7.81210        6.83486
H          7.40681        5.69450        7.12086
H          4.35665       10.52336        5.36471
H          8.76170       11.53826        2.89645
H          9.42253       10.45913        4.18908
H          9.85989       12.21453        4.17034
H          7.96962        3.15270        7.30922
H          9.41878        4.06221        7.78663
H          9.57667        2.41164        7.15499
H         11.14501        4.72767        3.89234
H         11.60216        3.40567        4.99122
H         11.43317        5.06636        5.60744
