39

C          4.60095        3.54872       -0.20472
C          4.18661        2.07671       -0.12075
C          4.78154        1.20869       -1.23934
C          4.39855       -0.27137       -1.14674
Ga         5.17255       -1.47071       -2.55908
S          3.85257       -0.97306       -4.52975
O          2.40834       -1.27361       -4.34928
O          4.18456        0.39014       -5.03617
C          4.39086       -2.10025       -5.86930
C          7.04955       -1.01601       -3.18431
C          8.11178       -1.88312       -2.88052
C          9.43257       -1.60149       -3.26529
C          9.72868       -0.43825       -3.97678
C          8.68255        0.43365       -4.29766
C          7.36535        0.14941       -3.91163
C          8.98564        1.66128       -5.11372
F         10.25041        2.13925       -4.88890
F          8.91498        1.41540       -6.46105
F          8.13211        2.68724       -4.86609
C         10.52204       -2.58572       -2.94449
F         10.43794       -3.06350       -1.66796
F         10.48104       -3.68755       -3.76035
F         11.77568       -2.06160       -3.08046
H          4.15534        4.14945        0.60253
H          4.29028        3.99145       -1.16298
H          5.69458        3.65553       -0.13590
H          3.08642        1.99770       -0.15469
H          4.49004        1.66107        0.85639
H          5.88126        1.31527       -1.21786
H          4.46218        1.61540       -2.21418
H          3.30285       -0.38576       -1.19484
H          4.70880       -0.68251       -0.16964
H          5.05065       -3.04138       -2.34437
H          4.18339       -3.13325       -5.56622
H          5.46096       -1.94905       -6.05557
H          3.79824       -1.82278       -6.75143
H          7.91168       -2.80677       -2.33020
H         10.75202       -0.21153       -4.27111
H          6.56430        0.83480       -4.19896
