35

S          1.19710        0.39970       -0.59964
C          2.99502        0.07571       -0.37840
C          3.20100       -0.81008        0.84909
C          4.69775       -0.99438        1.13191
C          5.11083       -2.16004        2.06537
S          4.52233       -1.77567        3.79829
O          5.19066       -2.64430        4.76988
O          4.64492       -0.32157        3.99793
C          2.77237       -2.18802        3.91477
C          4.54923       -3.52906        1.43591
O          4.93145       -3.68454        0.25237
O          3.81503       -4.25814        2.14662
C          6.66685       -2.14307        2.09619
C          7.49852       -3.17944        2.88597
C          7.22934       -4.63783        2.49614
C          8.98450       -2.84307        2.68297
H          1.30288        1.16077       -1.71373
H          3.51166        1.03756       -0.25250
H          3.38153       -0.42376       -1.27677
H          2.72492       -1.78758        0.67580
H          2.70394       -0.33763        1.71005
H          5.11710       -0.05148        1.51710
H          5.19502       -1.23464        0.17978
H          2.67239       -3.20929        3.52561
H          2.17190       -1.46778        3.35215
H          2.56203       -2.11610        4.98914
H          6.98647       -1.13640        2.42086
H          6.94151       -2.23558        1.03133
H          7.26537       -3.06564        3.95354
H          7.37859       -4.79697        1.41712
H          6.20216       -4.93959        2.73395
H          7.91648       -5.30405        3.04258
H          9.27069       -2.94566        1.62262
H          9.62355       -3.52344        3.26692
H          9.21456       -1.81220        2.99411
