34

C          1.47839       -2.03225       -0.92543
S          3.11201       -1.81021       -1.68731
C          3.37793       -0.04494       -1.25039
C          4.81857        0.40304       -1.51123
B          5.36698        0.31226       -3.06535
C          4.43562        1.20660       -4.09654
C          4.71567        0.85647       -5.55387
C          3.97784        1.62281       -6.63242
O          3.15587        2.49926       -6.49930
O          4.31790        1.23613       -7.92821
C          6.93573        0.83466       -3.13320
C          7.99408       -0.04793       -2.46782
S          8.11527       -1.68945       -3.28705
C          9.72864       -2.21022       -2.63553
H          1.18563       -3.08103       -1.07159
H          0.72057       -1.38905       -1.39751
H          1.50320       -1.82073        0.15507
H          3.09003        0.04986       -0.18741
H          2.66766        0.55375       -1.84467
H          5.47726       -0.16648       -0.82829
H          4.87599        1.45792       -1.16716
H          5.32159       -0.87519       -3.44321
H          4.60255        2.29223       -3.95457
H          3.35785        1.04697       -3.91621
H          4.50603       -0.21862       -5.71549
H          5.79584        0.96078       -5.77472
H          4.98311        0.52980       -7.84860
H          7.00300        1.82872       -2.64198
H          7.26248        1.00519       -4.17747
H          7.75638       -0.21969       -1.40494
H          9.00810        0.38881       -2.52055
H          9.95961       -3.18957       -3.07632
H          9.70782       -2.31934       -1.54069
H         10.52720       -1.50292       -2.90883
