21

O          1.03985        0.33719        0.09961
C          2.34916        0.01567        0.25639
O          2.94834        0.40761        1.24633
C          2.98035       -0.83518       -0.80693
C          3.98829       -1.71686       -0.36313
C          4.61228       -2.58892       -1.24644
C          4.24385       -2.56306       -2.60108
C          3.28297       -1.65793       -3.04372
C          2.62293       -0.76078       -2.17363
Nb         1.20459        0.58800       -3.25101
S         -0.08905       -1.36496       -2.34940
F          0.46796        2.15245       -2.52783
H          0.61678       -0.20187       -0.62933
H          4.25225       -1.70109        0.69621
H          5.37373       -3.28520       -0.88963
H          4.71972       -3.24362       -3.31231
H          3.04522       -1.63873       -4.11492
H          2.90339        1.00266       -3.47782
H          0.21276        0.03588       -4.59870
H          1.77220        0.99217       -4.87723
H         -1.30975       -1.11172       -2.89055
