22

C          3.20216        0.83909        1.39131
C          2.47445        0.05034        0.30062
C          2.67401        0.61087       -1.12659
C          4.09907        0.71071       -1.62037
S          4.86848       -0.64110       -2.11528
O          3.99699       -1.73975       -2.51648
O          6.06754       -0.32680       -2.93012
F          5.69653       -1.39841       -0.78156
C          4.92589        1.96812       -1.41897
C          5.11199        2.83271       -2.67418
O          4.80607        4.01372       -2.73373
O          5.66906        2.21132       -3.73109
H          3.02742        0.40563        2.38766
H          2.86813        1.88891        1.41973
H          4.28631        0.83511        1.21126
H          1.39159        0.01941        0.52200
H          2.82796       -0.99294        0.31115
H          2.23802        1.62513       -1.17667
H          2.08407       -0.01113       -1.81888
H          5.93972        1.73498       -1.04470
H          4.45248        2.61423       -0.66754
H          5.83086        1.24448       -3.50146
