34

C          0.81903       -0.56178       -0.85662
C          2.10819       -0.36791       -0.03854
Al         2.85830        1.50925       -0.04604
C          1.53166        2.83639        0.95118
C          0.79983        2.51122        2.28354
C          1.72429        2.22381        3.51253
C          1.00333        1.73179        4.82073
F          0.07419        2.60990        5.24922
F          0.41360        0.53313        4.65349
F          1.92911        1.60004        5.80505
F          2.62440        1.25347        3.19460
F          2.40396        3.35330        3.85791
F         -0.05298        3.52760        2.66947
F          0.02203        1.39577        2.09250
F          2.15552        4.07998        1.18079
F          0.45549        3.13485        0.09053
C          4.70774        1.65757        0.79076
C          5.84938        2.00379       -0.18434
C          5.74236        3.42513       -0.73298
N          6.87708        3.74269       -1.62767
H          0.47622       -1.61277       -0.90555
H          0.95282       -0.21571       -1.89415
H         -0.01306        0.02689       -0.43952
H          2.90143       -1.02206       -0.44928
H          1.95099       -0.72499        0.99541
H          2.82324        2.13960       -1.55929
H          4.93152        0.69000        1.27582
H          4.70726        2.39763        1.61188
H          5.86012        1.30943       -1.04268
H          6.84504        1.90055        0.29868
H          5.65347        4.12711        0.12111
H          4.81282        3.51288       -1.31576
H          7.74654        3.71900       -1.08909
H          6.78722        4.69962       -1.97440
