37

C          1.04983        1.68380        1.37259
O          2.35323        1.17931        1.17943
C          2.65170        0.10988        2.07243
C          4.11095       -0.28495        1.95751
O          4.91658        0.66649        2.60875
C          6.30700        0.27146        2.65297
C          7.11616        1.31445        3.40108
B          8.65139        0.85194        3.71824
C          9.62346        1.12716        2.42239
C         11.14309        0.76728        2.48362
C         11.92063        0.65931        1.12189
F         11.73878        1.74310        0.34265
F         13.25587        0.55645        1.37350
F         11.56604       -0.43652        0.41972
F         11.80809        1.70254        3.22401
F         11.31347       -0.45007        3.09341
F          9.13924        0.34740        1.34790
F          9.57815        2.43519        1.96090
S          9.17167        1.78187        5.36004
O          9.69753        3.14537        5.14679
O          8.06697        1.63978        6.33459
C         10.53246        0.84227        6.12674
H          0.90259        2.49685        0.64966
H          0.91357        2.08480        2.39587
H          0.27598        0.90759        1.20105
H          2.01084       -0.76571        1.83482
H          2.44252        0.41555        3.11642
H          4.38487       -0.38656        0.88550
H          4.23346       -1.28873        2.42176
H          6.67047        0.13119        1.61797
H          6.37573       -0.71024        3.16501
H          6.61726        1.49175        4.36662
H          7.08320        2.26599        2.84671
H          8.74265       -0.32176        4.03779
H         11.43221        0.89488        5.50659
H         10.20739       -0.19392        6.27017
H         10.69924        1.33564        7.09266
