54

C          1.96805        0.17001        0.40856
C          3.37523       -0.01166       -0.16756
C          3.42600       -0.74677       -1.50411
Sb         2.84529        0.64676       -3.26177
C          3.08731       -1.13526       -4.71776
C          2.48371       -2.39648       -4.58082
C          2.76136       -3.44505       -5.46672
C          3.65698       -3.27679       -6.54427
C          4.24228       -2.00256       -6.69631
C          3.96008       -0.96527       -5.80010
Si         4.07648       -4.70010       -7.69202
C          2.50938       -5.43521       -8.50485
C          1.50691       -4.39302       -9.01412
C          0.39056       -4.98354       -9.84644
F         -0.31318       -5.94625       -9.18329
F         -0.51243       -4.03738      -10.23457
F          0.85358       -5.56837      -10.99584
C          5.23064       -4.12565       -9.07931
C          4.90328       -6.12811       -6.76101
C          0.61170        0.06583       -2.94974
O         -0.13083        0.17119       -4.21710
C         -1.39564       -0.21642       -4.20445
F         -1.57969       -1.54764       -3.89519
F         -2.19366        0.46825       -3.31289
F         -1.93459       -0.02542       -5.43674
C          4.80466       -1.32633       -1.78927
H          1.99560        0.65930        1.39437
H          1.46318       -0.80172        0.52930
H          1.34496        0.79038       -0.25029
H          3.99440       -0.55436        0.57587
H          3.84669        0.98453       -0.27676
H          2.66966       -1.55026       -1.52032
H          2.64841        2.02955       -2.11457
H          2.35135        1.65167       -4.64336
H          4.58239        1.03090       -3.55155
H          1.78265       -2.58386       -3.76144
H          2.27360       -4.41445       -5.30753
H          4.93879       -1.81871       -7.52074
H          4.44963        0.00633       -5.94087
H          2.01144       -6.10484       -7.78641
H          2.84777       -6.07394       -9.33794
H          1.98893       -3.63140       -9.64576
H          1.04020       -3.85664       -8.17548
H          4.77487       -3.33915       -9.69752
H          5.48379       -4.96877       -9.73905
H          6.17007       -3.72397       -8.67365
H          4.26283       -6.48198       -5.94040
H          5.85889       -5.80961       -6.32134
H          5.10057       -6.98069       -7.42857
H          0.16445        0.77016       -2.23263
H          0.51141       -0.96256       -2.57341
H          5.55586       -0.52695       -1.90651
H          4.81626       -1.91590       -2.71697
H          5.15007       -1.98362       -0.96825
