39

C          8.16165       -4.04279        1.30051
C          7.44586       -2.80371        0.75649
C          7.87203       -2.41872       -0.66416
C          7.17689       -1.15761       -1.18609
C          7.61329       -0.73526       -2.59229
C          6.96066        0.58683       -3.00604
C          7.21741        1.13629       -4.41029
C          6.67858        0.22948       -5.61576
O          6.30364       -0.92479       -5.30334
O          6.63640        0.80820       -6.73534
C          6.69332        2.56666       -4.56842
C          5.15439        2.63888       -4.50933
C          4.56478        3.89975       -5.16271
C          4.87473        4.04095       -6.66099
N          4.46157        2.84741       -7.40715
Br         9.25003        1.30007       -4.64769
H          7.83293       -4.28920        2.32115
H          9.25138       -3.88991        1.32872
H          7.97072       -4.92213        0.66672
H          7.62951       -1.94889        1.43035
H          6.35525       -2.97104        0.77357
H          7.66988       -3.26041       -1.34952
H          8.96609       -2.26676       -0.68649
H          7.36603       -0.32977       -0.47635
H          6.08350       -1.31915       -1.17556
H          7.33925       -1.49830       -3.33457
H          8.70929       -0.62270       -2.62066
H          7.23159        1.36875       -2.27187
H          5.86525        0.45754       -2.94464
H          7.03616        2.91411       -5.55061
H          7.13724        3.22180       -3.79952
H          4.81365        2.58779       -3.46245
H          4.72779        1.75839       -5.01373
H          4.93223        4.80298       -4.64276
H          3.46929        3.87568       -5.03607
H          5.95013        4.28616       -6.78538
H          4.31338        4.90877       -7.04837
H          5.12258        2.07563       -7.21343
H          4.54802        3.02928       -8.40804
