31

F          1.71679        0.61207        0.75131
N          1.92247       -0.51098       -0.19761
C          2.65215       -0.05912       -1.21062
C          3.16972        1.27379       -1.40494
C          3.92545        1.59106       -2.51447
C          4.22648        0.63767       -3.51874
C          3.71645       -0.67829       -3.34518
C          2.96134       -1.01946       -2.24832
C          5.04700        1.00105       -4.68206
C          6.59494        1.22045       -4.46941
C          7.47658        0.04748       -3.89414
C          7.70410       -1.29312       -4.70864
C          8.31867       -1.20610       -6.15662
C          8.91482       -2.56761       -6.68526
F          8.03601       -3.57854       -6.55112
F          9.20238       -2.42790       -7.99924
F         10.05375       -2.89458       -6.04727
F          7.36233       -0.83027       -7.03673
F          9.33707       -0.30543       -6.19114
F          8.58245       -2.02663       -3.95174
F          6.54495       -1.98529       -4.78185
F          8.72548        0.57187       -3.67867
F          6.98276       -0.34206       -2.69455
F          7.20162        1.60716       -5.64611
F          6.75974        2.24765       -3.58338
F          4.95606        0.07170       -5.70934
F          4.66279        2.23908       -5.24015
H          2.94547        2.02857       -0.65465
H          4.28938        2.61465       -2.62742
H          3.91804       -1.43489       -4.10500
H          2.57296       -2.03341       -2.13906
