31

N          1.84041        2.09941        1.35932
C          1.92068        0.86878        0.54205
C          2.83845        0.95590       -0.69082
Al         4.79468        1.31043       -0.26873
C          5.72301       -0.41654        0.32648
C          5.76390       -1.52692       -0.72643
C          6.44811       -2.84385       -0.35320
O          6.56292       -3.80338       -1.09066
O          6.94811       -2.88422        0.91444
C          5.78435        2.04850       -1.90407
C          5.34800        3.46971       -2.27030
C          6.05551        4.16272       -3.43518
O          5.79626        5.27749       -3.84502
O          7.04693        3.42917       -4.01810
H          1.46262        2.84422        0.76656
H          2.80387        2.39982        1.55240
H          0.88107        0.60240        0.27149
H          2.26564        0.06003        1.21111
H          2.44071        1.73811       -1.36730
H          2.75945        0.01287       -1.26858
H          4.96116        2.41014        0.95239
H          5.18881       -0.75079        1.23628
H          6.74398       -0.11786        0.63085
H          6.26585       -1.18736       -1.64812
H          4.74754       -1.80422       -1.05322
H          6.73037       -1.99980        1.29536
H          5.62807        1.35424       -2.75083
H          6.85867        2.02318       -1.63811
H          5.45942        4.14746       -1.40690
H          4.27279        3.50800       -2.51233
H          7.05518        2.57917       -3.51726
