26

N          3.39557        3.07786       -1.27595
C          3.74275        1.77127       -0.67502
C          4.12716        1.90727        0.80277
C          4.44725        0.57140        1.47879
In         5.06794        0.69944        3.62733
C          3.72766        2.08807        4.80752
C          4.36239        3.41014        5.18720
S          3.19980        4.42951        6.21188
C          4.20774        5.91014        6.53079
Br         7.40034        2.02963        3.45723
H          3.26405        2.97820       -2.28446
H          4.18337        3.71880       -1.15683
H          4.56901        1.25393       -1.20463
H          2.85649        1.11958       -0.76096
H          3.30345        2.42542        1.32314
H          5.00226        2.57910        0.87574
H          5.27071        0.06578        0.94749
H          3.57324       -0.10157        1.42103
H          5.43815       -0.83410        4.43405
H          3.41582        1.53685        5.70828
H          2.82709        2.25690        4.19533
H          4.62671        4.00565        4.30061
H          5.28193        3.27319        5.77483
H          3.61931        6.57588        7.17701
H          4.44720        6.44369        5.59972
H          5.14228        5.65162        7.04905
