24

C          2.71815       -2.02343       -1.44361
C          2.33475       -0.64336       -1.98553
C          3.02812        0.50914       -1.25198
Ga         5.05765        0.58718       -1.32722
C          6.03672       -0.48378        0.09733
C          7.56032       -0.37701        0.02526
C          8.24520       -1.13895        1.16124
S         10.08492       -0.99990        1.22987
Br         5.75984       -0.44004       -3.50515
H          2.17432       -2.82991       -1.96067
H          2.49701       -2.10257       -0.36653
H          3.79427       -2.20237       -1.58115
H          1.23239       -0.53515       -1.93937
H          2.60520       -0.60252       -3.05383
H          2.74984        0.49084       -0.18060
H          2.66687        1.47466       -1.64386
H          5.62089        2.08797       -1.39599
H          5.72186       -1.53932        0.04084
H          5.67995       -0.09736        1.07122
H          7.87840        0.67830        0.05612
H          7.91421       -0.77317       -0.94230
H          7.97810       -2.20516        1.13392
H          7.92389       -0.74551        2.13823
H         10.30978       -1.38509       -0.04901
