17

N          1.02787       -0.01168        0.18190
C          0.65534       -1.30280       -0.24254
C          1.11922       -2.50057        0.66977
C          0.53888       -2.44869        2.08643
C         -0.86720       -1.32943       -0.45490
N          2.49920        0.00380        0.23376
H          1.12426       -1.57625       -1.26545
H          2.21591       -2.42173        0.73048
H          0.88264       -3.46462        0.17494
H          0.64131       -1.41842        2.46308
H          1.05778       -3.13459        2.77577
H         -0.53275       -2.70906        2.10504
H         -1.38211       -1.02762        0.47137
H         -1.22408       -2.33116       -0.74760
H         -1.14541       -0.60707       -1.23620
H          2.72263        0.98979        0.40901
H          2.85471       -0.14893       -0.74925
