37

S          6.42027       -1.43605       -2.10111
C          5.52062       -1.00066       -0.55206
C          5.83914        0.44371       -0.16972
C          5.09275        0.88665        1.09652
B          5.48287        2.42915        1.49153
S          4.15778        2.88289        2.84447
O          2.79181        2.84278        2.30002
O          4.37957        2.23645        4.15058
C          4.34376        4.76748        3.34966
C          4.38904        5.84295        2.23057
F          3.35298        5.72295        1.37895
F          4.32345        7.09644        2.77535
F          5.53695        5.77557        1.52930
F          3.25821        5.04489        4.13162
F          5.46364        4.93131        4.11109
C          6.99802        2.60979        2.00890
C          7.92607        3.34022        1.24228
C          9.28083        3.41876        1.58468
C          9.77434        2.77623        2.72713
C          8.85971        2.05466        3.51172
C          7.51141        1.97164        3.15889
C         11.23192        2.86847        3.11243
H          5.99948       -2.72002       -2.19171
H          5.83557       -1.68887        0.24443
H          4.44254       -1.12650       -0.72316
H          5.57042        1.10973       -1.00692
H          6.92720        0.54857       -0.02576
H          5.34184        0.19660        1.92269
H          4.00740        0.79375        0.92264
H          5.19616        3.20630        0.59366
H          7.57480        3.85483        0.34382
H          9.96927        3.98757        0.95141
H          9.21396        1.54551        4.41388
H          6.82834        1.40809        3.79885
H         11.84034        3.24956        2.27992
H         11.63533        1.88702        3.40487
H         11.38321        3.54606        3.96883
