29

N          3.47937        0.99631        0.31434
C          2.76869       -0.24615       -0.07974
In         3.22073       -0.87854       -2.18356
C          1.87415       -2.77713       -2.44650
C          2.34711       -4.10816       -1.83145
F          2.63754       -3.95551       -0.51179
F          1.42382       -5.12150       -1.90822
F          3.46597       -4.56079       -2.45026
F          0.61570       -2.54669       -1.86093
F          1.59418       -3.08669       -3.78772
C          5.34679       -1.55511       -2.22090
C          6.19514       -1.22272       -1.14695
C          7.52510       -1.66242       -1.08693
C          8.07111       -2.46143       -2.10021
C          7.23967       -2.79952       -3.17924
C          5.91440       -2.35402       -3.23288
C          9.49655       -2.95863       -2.03029
H          3.11361        1.37055        1.19545
H          3.32273        1.72558       -0.38179
H          1.67182       -0.19058        0.05589
H          3.12523       -1.06542        0.56530
H          2.72760        0.24032       -3.46350
H          5.81158       -0.60097       -0.33127
H          8.15293       -1.38272       -0.23344
H          7.63583       -3.42605       -3.98602
H          5.30566       -2.65532       -4.09093
H         10.04050       -2.49092       -1.19711
H         10.04880       -2.74054       -2.95789
H          9.53884       -4.05021       -1.88208
