26

C          1.02795        0.52803       -0.51867
In         3.12598        0.13424       -0.94573
S          3.38552       -2.14682        0.54460
O          2.46678       -2.20561        1.69766
O          3.42086       -3.31700       -0.35937
C          5.18340       -2.13144        1.37819
C          5.79813       -3.51685        1.71367
C          7.08416       -3.50339        2.61771
F          8.03860       -2.70539        2.09320
F          6.81466       -3.08392        3.86791
F          7.59320       -4.75795        2.70372
F          4.87234       -4.27017        2.37158
F          6.14620       -4.14799        0.56020
F          6.00861       -1.48801        0.49021
F          5.12513       -1.37936        2.51201
S          4.43629        2.14877        0.09212
O          4.06442        3.24052       -0.85097
O          4.26013        2.42297        1.53638
C          6.23601        1.93593       -0.13255
H          0.75429       -0.01184        0.39533
H          0.39441        0.19315       -1.34912
H          0.89664        1.60558       -0.36344
H          3.98336       -0.28691       -2.40233
H          6.43402        1.68919       -1.18257
H          6.58672        1.14168        0.53570
H          6.68297        2.90324        0.13327
