54

C          8.56207       -1.81431        5.46145
C          8.14955       -1.37756        4.05380
C          8.73536       -2.26194        2.94881
C          8.35152       -1.81578        1.53499
C          8.94634       -2.69365        0.43011
C          8.59355       -2.22673       -0.98539
C          9.18874       -3.11496       -2.08400
C          8.82664       -2.67343       -3.51088
Si         9.41420       -3.86277       -4.87721
C          8.78569       -5.58338       -4.45679
C          7.42058       -5.78888       -4.16406
C          6.94830       -7.03250       -3.73934
C          7.80978       -8.13559       -3.58772
C          9.16305       -7.93814       -3.91048
C          9.64320       -6.69176       -4.32979
Ga         7.13169       -9.91754       -2.99041
C          8.43991      -11.49143       -3.07260
C          8.71603      -11.87932       -4.48221
O          9.81298      -11.98887       -5.00501
O          7.59414      -12.11709       -5.25329
I          6.25162       -9.74242       -0.48060
C          8.72297       -3.25168       -6.53365
C         11.30615       -3.85485       -4.96962
H          8.12692       -1.16361        6.23352
H          9.65598       -1.78743        5.57981
H          8.23498       -2.84405        5.66918
H          8.46250       -0.33279        3.88503
H          7.04922       -1.38039        3.97401
H          8.40872       -3.30487        3.10466
H          9.83627       -2.27412        3.03977
H          8.67478       -0.76993        1.38423
H          7.25111       -1.80894        1.44136
H          8.60341       -3.73388        0.56458
H         10.04514       -2.72117        0.54024
H          8.93525       -1.18518       -1.12609
H          7.49508       -2.20436       -1.09904
H          8.84782       -4.15159       -1.92724
H         10.28662       -3.13959       -1.96826
H          9.22085       -1.66142       -3.71333
H          7.72844       -2.58934       -3.59922
H          6.71138       -4.95842       -4.25598
H          5.88420       -7.14265       -3.50914
H          9.86589       -8.77302       -3.83360
H         10.70904       -6.58511       -4.55225
H          5.85729      -10.42776       -3.84596
H          7.85037      -12.27495       -2.57410
H          9.37758      -11.33800       -2.52965
H          6.81539      -11.74959       -4.77248
H          7.62362       -3.26669       -6.53159
H          9.06134       -3.89445       -7.35888
H          9.04734       -2.22210       -6.74815
H         11.75835       -4.19006       -4.02562
H         11.67943       -2.84222       -5.18265
H         11.66913       -4.51946       -5.76675
