38

N          0.97998       -1.14052        5.42555
C          2.27048       -0.42906        5.52077
C          2.87352       -0.17524        4.14024
C          4.23217        0.54494        4.19539
C          4.84462        0.87060        2.82792
In         6.93694        1.66336        2.94929
C          8.20103        0.36037        1.45184
C          8.73827       -1.04499        1.82395
C          7.67432       -2.14134        2.15148
F          6.89572       -1.78338        3.19389
F          6.87650       -2.40641        1.09717
F          8.29984       -3.30059        2.49046
F          9.52396       -1.58820        0.82443
F          9.53347       -0.93586        2.93619
F          7.51120        0.17624        0.23995
F          9.36592        1.06180        1.09684
C          7.78700        1.24658        4.99410
C          9.20346        1.71356        5.37551
C          9.37816        3.20115        5.67119
O         10.04440        3.60798        6.63119
N          8.77115        4.06597        4.81057
H          0.62464       -1.34985        6.36036
H          1.12793       -2.04510        4.97220
H          3.01719       -0.96088        6.14500
H          2.07919        0.53737        6.01657
H          2.15836        0.40636        3.53510
H          3.00388       -1.14194        3.61893
H          4.92755       -0.07918        4.78429
H          4.11116        1.47481        4.78031
H          4.20345        1.58120        2.28231
H          4.89140       -0.04175        2.21081
H          7.23310        3.33568        2.38868
H          7.76612        0.14715        5.05577
H          7.06653        1.60271        5.74867
H          9.91968        1.45936        4.57368
H          9.57460        1.21190        6.28432
H          8.23353        3.75992        3.99633
H          8.90176        5.05666        4.97455
