33

F          7.38875        3.90799       -4.56701
C          7.12251        2.86838       -3.70555
O          5.88800        2.38280       -3.80527
C          4.78050        3.30998       -3.52841
Nb         2.74462        2.49164       -3.81084
C          1.37131        1.80169       -2.17102
F          1.41557        2.63175       -1.04834
F          0.04760        1.87774       -2.62830
F          1.44838        0.53714       -1.62550
C          2.42177        1.94422       -5.90265
C          3.49206        1.62976       -6.76661
C          3.27844        1.34042       -8.12104
C          1.98985        1.36453       -8.66218
C          0.91741        1.68303       -7.82268
C          1.12968        1.96693       -6.46836
C         -0.47694        1.65873       -8.38819
F         -0.52263        2.10100       -9.68228
F         -1.00369        0.39366       -8.40664
F         -1.34900        2.42629       -7.68267
C          4.43284        1.04642       -9.04070
F          5.57257        0.71983       -8.38054
F          4.16337        0.01395       -9.89832
F          4.74050        2.12033       -9.83835
F          8.00495        1.88175       -3.99303
F          7.43687        3.34356       -2.45698
H          4.89222        4.17385       -4.21727
H          4.86908        3.68076       -2.49258
H          2.34714        0.80497       -3.91509
H          3.58180        1.39973       -2.74436
H          1.62926        3.80341       -3.30536
H          4.51580        1.59397       -6.38396
H          1.82444        1.14227       -9.71575
H          0.26393        2.20046       -5.84294
