8

Ga         1.00773       -0.21346        0.30407
C          3.02549        0.12349       -0.11295
F          3.84884       -0.99739        0.01291
F          3.29068        0.57964       -1.40543
F          3.64369        1.07499        0.70144
H          0.52851       -1.33311       -0.72962
H          0.27616        1.19009        0.08121
H          0.95029       -0.70724        1.82276
