17

S          5.15941        0.11260        1.38020
Sb         3.15708       -0.50453       -0.12795
C          4.17910        0.64946       -1.93643
C          3.69932        2.11255       -2.09603
C          4.27002        2.96014       -3.28549
F          5.60206        3.13552       -3.17938
F          4.00981        2.38518       -4.47793
F          3.69404        4.19460       -3.29565
F          2.33686        2.11283       -2.25736
F          3.99733        2.81506       -0.96040
F          5.54548        0.65896       -1.87640
F          3.82508       -0.01566       -3.09439
Cl         4.62813       -2.48370       -0.86603
H          4.56819        1.27003        1.76436
H          2.53580       -1.53987        1.12281
H          2.26123        0.91524        0.38681
H          1.97746       -1.00077       -1.31776
