28

C          0.86827       -0.08166       -1.09827
Nb         2.69311        0.52661       -0.16069
S          4.34329       -0.61143        1.49631
O          5.08218       -1.84032        1.16273
O          5.18350        0.52823        1.98452
C          3.37315       -1.25163        3.12015
C          3.38341       -0.32828        4.37246
C          2.51079       -0.80789        5.59047
F          2.87860       -2.03330        6.01851
F          2.66828        0.05505        6.62444
F          1.19925       -0.84162        5.27922
F          4.66246       -0.23729        4.83198
F          2.93299        0.91274        4.05549
F          2.07778       -1.49286        2.73876
F          3.92274       -2.43981        3.48382
C          4.70440        0.52329       -1.19467
C          5.44178        1.82730       -1.21591
O          5.56556        2.54381       -2.19749
O          6.01389        2.20779       -0.03899
H          0.40776       -0.86942       -0.47727
H          0.87259       -0.40180       -2.14750
H          0.26460        0.84746       -0.99943
H          2.82794        1.97274       -1.20067
H          2.29553        0.94899        1.52962
H          3.01108       -1.10851       -0.67950
H          4.35320        0.30446       -2.21560
H          5.36371       -0.28950       -0.85965
H          5.77396        1.56670        0.68239
