41

C          3.10324       -1.04191        1.86740
S          3.39980       -0.47470        0.16508
O          4.66133       -1.13677       -0.26829
O          2.16711       -0.81696       -0.57730
Al         3.96989        1.83175        0.09679
S          2.45434        2.94377        1.67995
O          1.81620        2.06750        2.68273
O          3.15854        4.14395        2.17584
C          0.93275        3.80447        0.77332
C         -0.10475        2.94460       -0.01546
C         -0.94530        1.88013        0.78213
C         -2.24413        1.39640        0.03054
F         -1.98031        1.04309       -1.24002
F         -2.74326        0.31900        0.67658
F         -3.19960        2.34897        0.02527
F         -0.18935        0.78491        1.00428
F         -1.35833        2.39346        1.97282
F         -1.00235        3.81272       -0.60019
F          0.55602        2.29787       -1.00898
F          0.28460        4.54031        1.71450
F          1.46686        4.66704       -0.14271
C          5.75916        2.18163        0.89457
C          6.22455        1.29730        2.05765
C          7.63347        1.68642        2.54066
C          8.16784        0.80397        3.64920
C          9.58446        1.19969        4.16750
F         10.49262        1.15820        3.16242
F          9.57873        2.45726        4.67055
F         10.00691        0.36516        5.14203
F          7.34187        0.82114        4.75191
F          8.26640       -0.50890        3.24384
H          2.86905       -2.11138        1.77995
H          2.25998       -0.47871        2.28418
H          4.01122       -0.88977        2.46272
H          3.60547        2.39501       -1.35219
H          5.76457        3.24347        1.19711
H          6.47429        2.09532        0.05605
H          6.23025        0.24253        1.74411
H          5.52600        1.37853        2.90449
H          7.63577        2.72475        2.90605
H          8.34630        1.63309        1.70338
