45

C          4.62228       -1.50342        0.43527
C          4.60013       -0.03865        0.87773
C          3.21972        0.45620        1.32470
Ga         2.49583       -0.36121        3.08405
C          3.76532       -1.75283        3.91974
C          4.95179       -1.30235        4.53905
C          5.84871       -2.17540        5.16516
C          5.57888       -3.54908        5.23000
C          4.40637       -4.01906        4.64099
C          3.52780       -3.13561        3.98687
C          4.05272       -5.47647        4.71812
F          5.03117       -6.24125        5.28806
F          2.91936       -5.69706        5.45526
F          3.80695       -6.02223        3.48759
C          7.11347       -1.67864        5.80522
F          7.32424       -0.34879        5.62971
F          7.13415       -1.89815        7.16134
F          8.22790       -2.31652        5.31788
C          0.59513       -1.09054        2.80576
C         -0.02485       -1.83709        4.00020
C         -0.13104       -1.02832        5.30048
C         -0.31280        0.05037        2.32280
C          3.20854        1.98635        1.43955
H          5.62123       -1.81381        0.09195
H          3.91457       -1.66950       -0.39247
H          4.32819       -2.16788        1.25967
H          4.97251        0.58892        0.03837
H          5.33446        0.10471        1.69210
H          2.49596        0.16949        0.53675
H          2.52456        0.83247        4.18024
H          5.17560       -0.23302        4.54191
H          6.26586       -4.23117        5.72906
H          2.62863       -3.55308        3.52506
H          0.67408       -1.81965        1.97712
H          0.56287       -2.74653        4.20918
H         -1.04296       -2.19507        3.73122
H          0.85933       -0.68578        5.63253
H         -0.57781       -1.63075        6.10695
H         -0.75691       -0.13251        5.17157
H         -0.36853        0.87024        3.05737
H         -1.35322       -0.28682        2.13419
H          0.06148        0.49396        1.38709
H          3.89135        2.33126        2.23342
H          2.21240        2.37342        1.70226
H          3.52459        2.48046        0.49730
