53

C          4.24348        0.32319        0.90251
C          3.60438        1.63698        1.35507
C          3.20247        2.57988        0.18705
C          2.35251        1.93144       -0.91362
S          3.15691        1.75215       -2.39614
O          4.61073        1.83232       -2.23888
O          2.59702        0.71915       -3.26683
C          2.81883        3.35081       -3.42840
C          3.40816        3.42050       -4.86646
F          4.74846        3.28697       -4.86420
F          2.88097        2.47286       -5.66532
F          3.12343        4.63223       -5.43593
F          1.46747        3.53327       -3.54664
F          3.32118        4.42611       -2.74071
C          0.96341        1.56532       -0.76091
C          0.35036        1.58102        0.53247
C         -0.98101        1.25724        0.74297
C         -1.81263        0.88468       -0.32676
C         -1.23849        0.84416       -1.61281
C          0.09044        1.16616       -1.82310
C         -3.24289        0.55696       -0.09693
C         -4.23923        1.75762        0.14437
C         -4.42000        2.86661       -0.96099
C         -5.05505        2.53024       -2.37413
C         -6.49160        1.88646       -2.42054
C         -7.20356        2.00049       -3.82297
F         -6.40386        1.57181       -4.81664
F         -8.31113        1.22677       -3.80327
F         -7.58523        3.26388       -4.08284
F         -6.40578        0.56746       -2.12805
F         -7.31226        2.49084       -1.52045
F         -5.13331        3.73177       -3.02509
F         -4.20982        1.73448       -3.06895
F         -5.21214        3.83463       -0.40606
F         -3.21364        3.42161       -1.23062
F         -5.49237        1.27230        0.42002
F         -3.81412        2.43137        1.25358
F         -3.78430       -0.17732       -1.13385
F         -3.40879       -0.20870        1.05599
C          2.63404        3.91431        0.71384
H          4.55902       -0.28198        1.76604
H          5.12146        0.50848        0.26745
H          3.53620       -0.27078        0.30705
H          4.31622        2.19531        1.98880
H          2.74094        1.41708        2.00334
H          4.15569        2.83012       -0.30002
H          0.94320        1.84350        1.40390
H         -1.37817        1.27953        1.75901
H         -1.84741        0.54870       -2.46772
H          0.47949        1.10316       -2.83492
H          1.66539        3.80003        1.21911
H          2.49396        4.62272       -0.11309
H          3.33316        4.36623        1.43589
