43

S          4.07686        1.08778        2.94895
C          3.96038        1.93800        1.31915
C          4.26304        0.93289        0.21151
C          4.05839        1.52308       -1.19350
Ta         5.20405        3.28617       -2.01955
C          3.94100        5.02837       -2.63502
C          2.95043        5.71741       -1.89839
C          2.23835        6.79464       -2.42527
C          2.51260        7.27785       -3.71770
C          3.48235        6.64060       -4.48105
C          4.16327        5.52412       -3.95413
C          5.09162        4.70924       -4.73195
O          5.60906        3.69561       -4.24625
O          5.36516        4.98669       -6.03505
C          7.41233        3.52161       -2.28754
C          7.71933        4.89542       -2.40687
C          9.03113        5.36651       -2.52473
C         10.09645        4.45977       -2.57711
C          9.83094        3.09477       -2.48583
C          8.51378        2.63497       -2.31877
C          8.33192        1.15559       -2.14360
O          9.13890        0.32145       -2.53110
O          7.20995        0.78009       -1.49855
H          3.91763        2.18349        3.72875
H          4.67984        2.76511        1.28078
H          2.94334        2.34140        1.20570
H          3.60575        0.05107        0.35307
H          5.29549        0.56993        0.33188
H          2.99638        1.81493       -1.31268
H          4.19124        0.71308       -1.93405
H          3.92920        2.65265       -3.12229
H          6.08441        2.69371       -0.52362
H          4.91519        4.30961       -0.59217
H          2.75348        5.40316       -0.87031
H          1.47587        7.29317       -1.82097
H          1.97719        8.14224       -4.11360
H          3.69636        7.02616       -5.48665
H          4.86461        5.78287       -6.28482
H          6.90983        5.63750       -2.40749
H          9.22235        6.44093       -2.59430
H         11.12250        4.81708       -2.68842
H         10.63373        2.35591       -2.52711
H          6.75550        1.60274       -1.06780
