28

F          1.71343       -0.28384       -0.04181
Nb         3.53153       -0.47663        0.44102
C          4.01465        1.01228        2.09009
C          3.31200        0.88325        3.46927
F          1.97579        0.66556        3.29807
F          3.80129       -0.13457        4.21541
F          3.42254        2.00770        4.24615
F          5.37145        1.13256        2.40576
F          3.60471        2.30188        1.66411
C          4.54450       -0.92506       -1.51900
C          6.03579       -1.24255       -1.49429
C          6.59513       -1.56749       -2.89565
C          8.07591       -1.87869       -2.91926
C          8.65130       -2.21104       -4.33007
F          8.03219       -3.29369       -4.86085
F          8.47223       -1.17222       -5.18171
F          9.97621       -2.47842       -4.28134
F          8.82610       -0.82208       -2.44878
F          8.37991       -2.96621       -2.12676
H          3.76165       -1.32325        1.97223
H          4.07040       -2.15654        0.40603
H          4.64436        0.80654       -0.02755
H          4.36503       -0.06024       -2.18660
H          3.98985       -1.79142       -1.93158
H          6.22421       -2.09844       -0.82764
H          6.59061       -0.38731       -1.07741
H          6.42332       -0.71921       -3.57606
H          6.06738       -2.43572       -3.31940
