40

N          5.49745        2.32147        0.56531
C          4.82099        1.00607        0.54192
C          5.43085        0.08073       -0.51284
C          4.78322       -1.30564       -0.59572
Ga         5.40911       -2.36269       -2.22827
C          4.04375       -3.84814       -2.70144
C          3.94530       -5.01868       -1.72550
C          2.94748       -6.13360       -2.05044
O          2.79371       -7.14885       -1.39901
O          2.19868       -5.91438       -3.16936
C          7.29244       -3.14864       -2.01315
C          7.62935       -3.73494       -0.64136
C          9.08291       -4.24557       -0.56291
C          9.47787       -4.82883        0.77603
C         10.93686       -5.37453        0.84494
F         11.12216       -6.37150       -0.05376
F         11.83155       -4.39447        0.56753
F         11.23189       -5.86536        2.07031
F          9.37854       -3.89358        1.78570
F          8.66536       -5.88473        1.13124
H          4.98747        2.97203        1.16568
H          5.46842        2.72287       -0.37509
H          3.73099        1.07999        0.34897
H          4.93446        0.55133        1.54056
H          6.51302       -0.00671       -0.31410
H          5.34974        0.58015       -1.49748
H          3.68712       -1.19243       -0.68725
H          4.95655       -1.85812        0.34488
H          5.41751       -1.35919       -3.50108
H          4.33529       -4.19139       -3.71023
H          3.08000       -3.31277       -2.78673
H          3.68271       -4.67207       -0.71158
H          4.91839       -5.52225       -1.60262
H          2.51963       -5.04441       -3.51261
H          8.00470       -2.33855       -2.25117
H          7.43916       -3.91715       -2.79407
H          6.95015       -4.56693       -0.39721
H          7.47672       -2.97679        0.14308
H          9.77963       -3.42266       -0.78541
H          9.24663       -5.02202       -1.32624
