8

C          1.04970        0.01562       -0.19098
In         3.12754       -0.26470        0.47827
Br         4.29607        2.07489        0.09422
Br         4.18731       -1.93614       -1.27740
H          0.79913        1.08374       -0.15885
H          0.34758       -0.54169        0.44427
H          0.96290       -0.34534       -1.22343
H          3.63155       -0.82283        2.06276
