32

C          5.28340       -1.38136       -1.59928
C          4.33522       -0.32877       -1.01189
C          2.88272       -0.51717       -1.49309
Al         1.85262       -2.23095       -1.52308
S          1.81421       -3.56363        0.56552
O          1.48118       -4.96935        0.27329
O          2.91648       -3.30520        1.51423
C          0.20490       -3.05997        1.61218
C          0.19844       -1.62100        2.19199
C         -1.16686       -1.09837        2.76441
F         -2.09367       -0.95155        1.80016
F         -1.65189       -1.94025        3.70268
F         -0.98250        0.11218        3.34879
F          1.10157       -1.53339        3.20428
F          0.56071       -0.74716        1.20339
F         -0.89125       -3.22017        0.81458
F          0.11558       -3.94825        2.64057
C          2.59698       -3.65377       -2.83243
F          2.95443       -3.02656       -4.03654
F          3.73288       -4.34591       -2.45935
F          1.69773       -4.62630       -3.21165
C          4.42948       -0.30634        0.51900
H          5.21199       -1.42137       -2.69629
H          5.04281       -2.38521       -1.21798
H          6.33038       -1.16519       -1.33293
H          4.68642        0.65943       -1.37206
H          2.82909       -0.24853       -2.56832
H          2.23314        0.22094       -0.98949
H          0.28020       -2.03065       -1.79054
H          4.10630       -1.26499        0.95084
H          3.79017        0.48381        0.94193
H          5.46381       -0.11538        0.84758
