30

C          0.80372        0.47095       -0.29675
S          2.47994        0.97830       -0.78445
C          3.11002       -0.60516       -1.51214
C          4.54245       -0.49371       -1.99744
Ga         5.22023       -2.31738       -2.64240
C          4.26221       -2.68962       -4.46977
F          2.87505       -2.80749       -4.38701
F          4.44823       -1.70550       -5.44539
F          4.65686       -3.86399       -5.10932
C          7.22716       -2.52088       -2.90921
C          7.85663       -2.05113       -4.22886
C          7.72203       -0.53492       -4.41692
C          9.33304       -2.47110       -4.34075
H          0.30601        1.34190        0.15043
H          0.83165       -0.34002        0.44585
H          0.21906        0.13946       -1.16707
H          2.42850       -0.87460       -2.33341
H          3.01533       -1.37535       -0.73042
H          5.20134       -0.16546       -1.17637
H          4.62291        0.25567       -2.80059
H          4.67235       -3.44604       -1.63610
H          7.43051       -3.59753       -2.77466
H          7.73448       -2.01309       -2.06605
H          7.31405       -2.53641       -5.06028
H          8.22825        0.00097       -3.59604
H          6.66735       -0.22871       -4.41514
H          8.17288       -0.20099       -5.36542
H          9.92792       -2.00693       -3.53598
H          9.77810       -2.17117       -5.30508
H          9.43915       -3.56213       -4.24182
