42

F         -0.26696        0.39367        1.84304
C          0.42994        0.91662        0.80481
C          1.64771        1.69024        1.23864
C          2.16581        1.55175        2.53262
C          3.31673        2.25064        2.93519
C          3.93587        3.07841        1.98356
C          3.42118        3.21625        0.68824
C          2.26953        2.52497        0.30727
C          4.11629        4.07490       -0.33389
F          5.01308        4.93353        0.21368
F          4.80838        3.32026       -1.24705
F          3.23732        4.82709       -1.06164
Ga         4.16577        2.13762        4.75032
C          4.03423        0.21997        5.57915
C          3.06242       -0.22047        6.71823
C          1.56283       -0.41173        6.29485
C          0.52670       -0.46851        7.47663
F          0.87179       -1.41820        8.37500
F          0.41337        0.70502        8.10670
F         -0.68652       -0.79748        6.97020
F          1.17594        0.60422        5.47976
F          1.43659       -1.58397        5.61083
F          3.46664       -1.41893        7.25289
F          3.12559        0.70941        7.71500
F          3.84974       -0.69629        4.53827
F          5.29792       -0.05389        6.09258
S          2.96949        3.68233        6.27089
O          1.54798        3.38622        6.51896
O          3.82713        3.98797        7.42704
C          2.94468        5.42854        5.33715
C          1.62748        5.80051        4.60935
F          1.26349        4.83169        3.74546
F          0.62834        6.00649        5.48585
F          1.78473        6.95008        3.89030
F          3.21302        6.40531        6.24003
F          3.95116        5.41156        4.40868
F          0.75927       -0.13336       -0.01426
F         -0.44211        1.68834        0.08794
H          1.65067        0.89232        3.22866
H          4.83427        3.63637        2.25389
H          1.85914        2.63995       -0.69608
H          5.64035        2.65623        4.83143
