78

C          1.05384        0.37990        0.43959
C          2.57279        0.19033        0.40020
C          3.07830       -0.37341       -0.93199
C          4.59850       -0.55103       -0.99869
C          5.08482       -1.12242       -2.33404
C          6.60563       -1.27099       -2.43888
C          7.05810       -1.86011       -3.78076
C          8.58111       -1.97255       -3.94026
Si         9.19863       -2.64744       -5.60939
C          8.64116       -4.43326       -5.83483
C          7.27600       -4.74986       -5.97724
C          6.84057       -6.06604       -6.09550
C          7.76210       -7.12671       -6.08983
C          9.12603       -6.82232       -5.98872
C          9.55272       -5.50316       -5.85372
C          7.28256       -8.56759       -6.19936
S          6.50497       -8.99209       -4.45845
O          5.45226       -8.00666       -4.22977
O          6.18155      -10.40294       -4.30488
C          7.69328       -8.57895       -2.92201
C          8.82346       -9.56955       -2.40543
C         10.34620       -9.24877       -2.77996
C         11.17942       -8.56932       -1.62380
F         11.37675       -9.39521       -0.57760
F         12.39765       -8.24004       -2.11418
F         10.59175       -7.43801       -1.18553
F         10.97242      -10.41868       -3.05732
F         10.46538       -8.41991       -3.83731
F          8.77731       -9.50208       -1.02199
F          8.53307      -10.83656       -2.72568
F          8.18269       -7.32203       -3.01645
F          6.74154       -8.57442       -1.94599
C          6.18792       -8.76093       -7.26092
C          5.09329       -9.61848       -7.04644
C          4.09603       -9.80247       -8.00184
C          4.15710       -9.12204       -9.21650
C          5.23983       -8.28357       -9.45983
C          6.26756       -8.10731       -8.51976
C          7.39480       -7.22928       -9.04073
O          7.14961       -6.14066       -9.54387
O          8.61263       -7.75272       -9.03745
C          8.47829       -9.58556       -6.37019
O          8.87235       -9.77456       -7.55950
O          8.92637      -10.07326       -5.32021
C          8.50969       -1.58298       -7.01184
C         11.08580       -2.53069       -5.61066
H          0.71877        0.78265        1.40617
H          0.52924       -0.57373        0.27707
H          0.71880        1.07549       -0.34486
H          2.88231       -0.48118        1.21911
H          3.07015        1.15544        0.59840
H          2.75417        0.29088       -1.75320
H          2.58972       -1.34518       -1.12357
H          4.92689       -1.21166       -0.17692
H          5.08775        0.42281       -0.81637
H          4.72814       -0.47590       -3.15596
H          4.61254       -2.10628       -2.50119
H          6.97363       -1.91152       -1.61827
H          7.08287       -0.28512       -2.29188
H          6.64288       -1.23971       -4.59444
H          6.60060       -2.85613       -3.89811
H          8.99669       -2.61800       -3.14706
H          9.04653       -0.97973       -3.79773
H          6.52699       -3.95540       -6.00920
H          5.77709       -6.27727       -6.19647
H          9.86221       -7.62273       -6.02704
H         10.62531       -5.31468       -5.77321
H          5.01065      -10.16668       -6.11187
H          3.26781      -10.47811       -7.78208
H          3.37588       -9.24424       -9.96866
H          5.32088       -7.73518      -10.39871
H          8.65954       -8.64318       -8.48067
H          7.41384       -1.64246       -7.06344
H          8.90195       -1.92772       -7.97859
H          8.78786       -0.52686       -6.88004
H         11.52672       -3.10257       -4.78195
H         11.39757       -1.48212       -5.49719
H         11.51177       -2.90994       -6.55002
