42

C          5.81007        2.41875       -3.91891
S          7.35725        1.66821       -3.35297
C          6.83067        0.95958       -1.74564
C          5.70780       -0.07565       -1.76500
Ta         5.57700       -1.85337       -3.08142
S          4.28344       -3.64656       -4.21474
O          4.14183       -4.18503       -5.57468
O          5.40018       -4.25446       -3.35822
C          2.75468       -4.52843       -3.33689
C          1.36968       -3.80960       -3.44435
C          0.86392       -3.45881       -4.88664
C         -0.62498       -2.95382       -4.96209
F         -0.84747       -1.92525       -4.12152
F         -0.87295       -2.52912       -6.22171
F         -1.49999       -3.93828       -4.67847
F          1.63724       -2.46549       -5.39373
F          0.94191       -4.54764       -5.69332
F          0.42032       -4.61572       -2.85964
F          1.42529       -2.65266       -2.73310
F          2.63643       -5.77681       -3.86978
F          2.99458       -4.67244       -2.00553
C          7.65439       -2.34052       -2.60110
C          8.20603       -2.47263       -1.17377
C          7.91897       -3.75229       -0.38513
O          8.45987       -3.95628        0.70762
N          7.05441       -4.64117       -0.94101
H          6.03277        2.92368       -4.86766
H          5.44178        3.16219       -3.19709
H          5.05284        1.64278       -4.09486
H          6.61118        1.81183       -1.07753
H          7.76350        0.50623       -1.37366
H          4.72707        0.42574       -1.86595
H          5.67496       -0.54384       -0.75497
H          5.25664       -0.52555       -4.20463
H          4.13453       -2.26560       -2.10325
H          5.92968       -2.24011       -4.78793
H          8.09799       -1.43954       -3.07806
H          7.97750       -3.19215       -3.22223
H          7.84640       -1.65521       -0.52609
H          9.30610       -2.38320       -1.15287
H          6.55687       -4.48453       -1.81719
H          6.82482       -5.46349       -0.39591
