35

N          1.24680       -0.23117        0.40544
C          2.64972       -0.35111       -0.08280
C          3.18772        0.97274       -0.59464
P          5.15559        1.17827       -0.54921
C          5.52074       -0.55915       -1.39679
C          4.86653       -1.11997       -2.50140
C          5.24067       -2.36539       -3.02781
C          6.27971       -3.10793       -2.45298
C          6.93322       -2.55928       -1.33570
C          6.56229       -1.30982       -0.83456
C          6.69607       -4.44453       -3.01993
C          5.23570        2.02948       -2.33932
O          4.75225        3.42593       -2.23078
C          4.70945        4.13733       -3.33749
F          5.92858        4.30942       -3.96110
F          3.87998        3.62929       -4.31977
F          4.24327        5.38619       -3.05281
H          0.87003       -1.16538        0.59183
H          0.67482        0.15180       -0.35153
H          2.75177       -1.12942       -0.86071
H          3.26374       -0.67955        0.77501
H          2.85812        1.77494        0.08477
H          2.77397        1.20093       -1.59292
H          6.63822        1.32053       -0.44168
H          5.15201        0.51762        0.78652
H          4.99813        2.51371        0.05918
H          4.03260       -0.58841       -2.97000
H          4.71159       -2.77091       -3.89710
H          7.74362       -3.12221       -0.85914
H          7.09178       -0.88500        0.02716
H          5.97511       -4.80079       -3.76956
H          6.77248       -5.21210       -2.23396
H          7.68213       -4.38931       -3.51001
H          4.62044        1.53174       -3.10000
H          6.28812        2.06210       -2.65979
