45

O          5.40213       -0.68050       -0.45310
Ta         3.61936       -0.27646       -1.13754
C          4.47173        1.79090       -1.05279
C          5.70246        2.00577       -1.73090
C          6.41793        3.20017       -1.66212
C          5.92226        4.26861       -0.89449
C          4.70162        4.10365       -0.21792
C          4.00836        2.89543       -0.30127
C          6.69646        5.54178       -0.79588
C          6.75586        6.46208       -2.07568
C          5.41997        6.97320       -2.73660
C          4.44451        7.95602       -1.96707
C          5.00788        9.33788       -1.46274
C          3.89267       10.40786       -1.14859
F          2.93684        9.90133       -0.34866
F          4.46868       11.45329       -0.51508
F          3.32014       10.87014       -2.27459
F          5.71023        9.14997       -0.32056
F          5.82198        9.89246       -2.39946
F          3.44374        8.23304       -2.85838
F          3.89759        7.31058       -0.91124
F          5.78355        7.61536       -3.88876
F          4.66175        5.90439       -3.07769
F          7.51313        7.57179       -1.80286
F          7.39358        5.76846       -3.06273
F          6.24538        6.34889        0.22695
F          8.04047        5.29543       -0.53022
C          2.47332       -1.57395        0.22029
C          3.24132       -2.90241        0.37370
C          2.39437       -4.07434        0.89516
H          6.09301       -0.01569       -0.31852
H          3.48128       -1.24248       -2.66384
H          3.00250        0.76345       -2.46821
H          2.32553        0.77009       -0.47640
H          6.12778        1.20285       -2.34464
H          7.37028        3.29974       -2.18677
H          4.30398        4.91967        0.38740
H          3.06498        2.79335        0.24013
H          1.51362       -1.73752       -0.31419
H          2.20662       -1.15820        1.20385
H          4.09743       -2.74185        1.04908
H          3.69120       -3.20933       -0.58982
H          1.95080       -3.83213        1.87366
H          2.99026       -4.99545        1.01196
H          1.56533       -4.29562        0.20521
