27

C          6.68559        0.77675        2.65850
S          5.73842        1.73947        1.44782
C          5.98564        0.66669       -0.01967
C          5.15809        1.13908       -1.22235
B          5.56287        2.57377       -1.91808
C          4.37196        3.04273       -2.95709
C          3.17191        3.79617       -2.30655
F          2.58817        3.07338       -1.31580
F          3.55584        4.98169       -1.77557
F          2.18909        4.07484       -3.21507
F          4.78003        3.91616       -3.96730
F          3.77004        1.96841       -3.63718
C          7.05222        2.58328       -2.62268
C          7.40654        1.59709       -3.77453
F          6.58915        1.75051       -4.84128
F          8.68486        1.76172       -4.22872
F          7.30765        0.30109       -3.36764
F          7.39763        3.83465       -3.13299
F          8.03948        2.31075       -1.65718
H          6.59969        1.29003        3.62549
H          7.74921        0.72215        2.38318
H          6.28776       -0.24423        2.76424
H          5.68728       -0.35044        0.28891
H          7.06112        0.65540       -0.24771
H          4.10361        1.17957       -0.90457
H          5.19603        0.32682       -1.96810
H          5.66671        3.46205       -1.08433
