48

I          5.92307        5.74975       -8.33178
Ga         6.92915        7.62969       -6.74757
C          6.90951        6.95739       -4.85329
C          6.26997        5.77060       -4.46047
C          6.24784        5.35997       -3.12156
C          6.86123        6.12163       -2.10786
C          7.50376        7.31362       -2.50392
C          7.53002        7.71553       -3.84206
Si         6.83511        5.60050       -0.30104
C          8.61338        5.30490        0.32713
C          8.74010        4.84951        1.78982
C         10.18399        4.62160        2.25992
C         10.27868        4.14293        3.71270
C         11.70858        3.89868        4.20677
C         11.77342        3.41262        5.65843
C         13.19401        3.16047        6.17350
C         13.22936        2.67137        7.62383
C          6.03821        6.96398        0.75252
C          5.82567        4.01093       -0.08302
I          9.48445        7.99583       -7.39960
H          6.18241        8.97067       -7.09317
H          5.78150        5.15043       -5.21838
H          5.73876        4.42548       -2.86613
H          7.99825        7.94342       -1.75586
H          8.05805        8.63719       -4.10502
H          9.18469        6.23699        0.17280
H          9.08191        4.56113       -0.34025
H          8.17332        3.91365        1.93830
H          8.26774        5.59262        2.45610
H         10.75763        5.55746        2.14107
H         10.66893        3.88374        1.59712
H          9.69541        3.21159        3.82476
H          9.79096        4.88339        4.37150
H         12.29530        4.82865        4.10592
H         12.20063        3.15850        3.55160
H         11.18391        2.48367        5.75672
H         11.27843        4.15272        6.31218
H         13.78350        4.08837        6.08242
H         13.69093        2.42156        5.52254
H         12.76577        3.40478        8.30085
H         14.25792        2.50087        7.97195
H         12.67764        1.72607        7.73747
H          6.57487        7.91660        0.63714
H          6.03042        6.70678        1.82211
H          4.99876        7.13174        0.43694
H          6.25861        3.17401       -0.64909
H          4.79298        4.15160       -0.43218
H          5.78144        3.71450        0.97504
