52

C          1.27548       -0.94367        0.26595
C          2.48188        0.00130        0.22428
C          3.11753        0.12302       -1.17010
C          4.34075        1.04132       -1.26347
Ga         5.11618        1.04097       -3.14369
C          3.77922        1.87942       -4.42413
C          3.73271        1.52605       -5.78806
C          2.79890        2.07564       -6.66899
C          1.84267        3.01437       -6.22809
C          1.87860        3.37596       -4.86822
C          2.82229        2.81958       -3.99873
Si         0.68927        3.81790       -7.45670
C          1.74138        4.87958       -8.64383
C          2.73711        5.78240       -7.90566
C          3.53257        6.69303       -8.81382
F          4.25404        6.01147       -9.74808
F          2.73535        7.56787       -9.50544
F          4.42113        7.45811       -8.11499
C         -0.23522        2.55043       -8.51355
C         -0.57139        4.93927       -6.59840
C          6.87359        2.09273       -3.20031
O          7.48486        1.92381       -4.55075
C          8.75132        2.25858       -4.69109
F          9.03911        3.57596       -4.39352
F          9.62775        1.52493       -3.91536
F          9.12628        2.06159       -5.98486
H          0.83896       -1.01806        1.27400
H          1.55909       -1.95990       -0.04971
H          0.48161       -0.60289       -0.41674
H          3.24923       -0.34594        0.93864
H          2.17986        1.00468        0.57246
H          2.34121        0.46560       -1.87905
H          3.39507       -0.88947       -1.51679
H          5.12117        0.70047       -0.55984
H          4.07080        2.06584       -0.94864
H          5.42795       -0.45595       -3.63832
H          4.44890        0.79288       -6.17213
H          2.81482        1.76665       -7.72071
H          1.15892        4.10198       -4.47629
H          2.80421        3.12973       -2.94839
H          1.07112        5.47881       -9.28137
H          2.28858        4.19700       -9.31310
H          3.46009        5.17994       -7.33578
H          2.23266        6.43910       -7.18030
H          0.46701        1.87788       -9.02581
H         -0.85214        3.04551       -9.27801
H         -0.89363        1.93156       -7.88787
H         -0.08571        5.74741       -6.03348
H         -1.18837        4.36574       -5.89236
H         -1.24101        5.40051       -7.33883
H          7.58863        1.69604       -2.46323
H          6.76389        3.17537       -3.03464
