35

N          2.42573        1.24657        1.33262
C          3.19626        0.70615        0.20687
Nb         4.14925        2.08252       -1.26218
C          2.16782        3.08698       -1.65057
C          0.86950        2.59357       -1.34016
C         -0.29923        3.28381       -1.65129
C         -0.25689        4.53195       -2.30149
C          0.98538        5.05675       -2.63496
C          2.16361        4.34963       -2.31945
C          3.49843        4.83102       -2.64776
O          4.50778        4.17640       -2.38771
O          3.67424        6.05037       -3.25530
C          6.22559        2.60870       -0.45711
C          7.04781        1.41924       -0.87929
S          5.87508        0.05819       -1.45047
C          6.05785       -1.09097       -0.01805
H          1.53090        0.77076        1.47501
H          2.23143        2.23608        1.18219
H          2.56030        0.39986       -0.68761
H          3.68135       -0.22779        0.52250
H          3.50527        1.75558       -2.91789
H          5.36831        1.83421       -2.56084
H          3.81327        3.44362       -0.10999
H          0.77312        1.62748       -0.83692
H         -1.26958        2.85079       -1.38874
H         -1.17486        5.07082       -2.54220
H          1.01750        6.02572       -3.15256
H          2.79282        6.44359       -3.37652
H          6.10889        2.66793        0.63708
H          6.61995        3.56004       -0.83222
H          7.68660        0.94528       -0.10994
H          7.66165        1.62553       -1.76647
H          5.35095       -1.91884       -0.15974
H          5.83184       -0.58531        0.92953
H          7.08090       -1.49322       -0.00028
