46

S          0.85883        0.21439       -0.22476
C          2.68281        0.21187       -0.56445
C          3.20180       -1.22277       -0.69887
C          4.68217       -1.28488       -1.08050
Ga         5.44086       -3.20541       -1.06725
C          4.25966       -4.41468       -2.25233
C          4.97819       -5.53692       -2.97245
O          5.76054       -6.31491       -2.04491
C          6.59357       -7.24450       -2.69094
C          7.57001       -7.84829       -1.70000
O          6.93204       -8.84488       -0.90276
C          7.78317       -9.32459        0.11589
C          7.42052       -3.19467       -1.59477
C          8.28158       -2.43925       -0.57850
C          9.80112       -2.53742       -0.79358
C         10.61386       -1.76453        0.24234
N         12.06700       -1.91375        0.01262
H          0.69975        1.55486       -0.11418
H          3.19016        0.72414        0.26531
H          2.86362        0.77437       -1.49101
H          2.59371       -1.75198       -1.45324
H          3.03340       -1.75227        0.25509
H          5.27659       -0.69988       -0.35466
H          4.83415       -0.81198       -2.06845
H          5.35246       -3.69634        0.47979
H          3.77651       -3.78506       -3.02014
H          3.44750       -4.82902       -1.63216
H          5.66502       -5.12081       -3.74060
H          4.29143       -6.23878       -3.50239
H          7.18522       -6.74449       -3.48884
H          6.00748       -8.05526       -3.17743
H          7.96919       -7.04157       -1.05625
H          8.41907       -8.30446       -2.25200
H          7.22072      -10.07413        0.68873
H          8.10058       -8.51408        0.79986
H          8.69498       -9.80189       -0.29971
H          7.57387       -2.77032       -2.60403
H          7.74752       -4.24895       -1.64398
H          8.04751       -2.80551        0.43828
H          7.99861       -1.37006       -0.57552
H         10.06681       -2.17979       -1.80264
H         10.09576       -3.60380       -0.75773
H         10.29873       -2.08860        1.25496
H         10.37410       -0.69051        0.16768
H         12.30504       -2.90806        0.03918
H         12.58998       -1.47988        0.77600
