38

C          3.07032        2.42882       -1.87074
C          2.33697        1.33873       -1.07832
C          2.53417       -0.06947       -1.63805
Sb         4.38865       -1.11761       -0.87249
C          6.26050       -2.10477       -0.00138
C          7.47739       -1.20405       -0.17548
C          8.82979       -1.87105        0.12728
C          5.97205       -2.49871        1.43774
C          4.96521       -2.09257       -2.90577
C          4.43592       -1.62066       -4.26113
C          5.01120       -0.34010       -4.86579
O          4.88124       -0.07906       -6.07012
N          5.68180        0.48578       -4.01716
H          2.89630        3.42824       -1.44101
H          2.73288        2.44859       -2.91946
H          4.15286        2.24312       -1.87381
H          1.26052        1.59187       -1.04197
H          2.68400        1.36098       -0.02694
H          2.54985       -0.06200       -2.73860
H          1.73228       -0.75012       -1.31374
H          5.43811        0.36381       -1.33442
H          4.04347       -0.36033        0.74822
H          3.44172       -2.61512       -0.45353
H          6.36218       -3.00541       -0.63188
H          7.35891       -0.31291        0.46726
H          7.50145       -0.81052       -1.20671
H          8.87494       -2.25613        1.15750
H          9.66685       -1.16485        0.00034
H          9.00647       -2.72139       -0.55038
H          5.79151       -1.60422        2.05812
H          6.79326       -3.07022        1.90908
H          5.06469       -3.12125        1.49742
H          4.61968       -3.12199       -2.72118
H          6.06748       -2.11786       -2.91449
H          3.34272       -1.46371       -4.22639
H          4.58171       -2.37771       -5.05262
H          5.64630        0.37517       -2.99020
H          5.95780        1.38648       -4.39340
