26

N          3.48261       -0.94127        3.37404
C          3.59837       -0.58142        1.94215
C          4.18068       -1.72895        1.11468
C          4.31865       -1.42777       -0.38346
Al         5.18677       -2.88249       -1.49514
C          4.08670       -4.59817       -1.42197
C          4.55862       -5.68723       -2.39095
C          3.77998       -7.00176       -2.48308
O          4.00905       -7.87284       -3.32902
N          2.80662       -7.16204       -1.53512
F          6.74959       -3.23289       -0.82358
H          3.25641       -0.11370        3.92948
H          4.39697       -1.25982        3.70463
H          4.21972        0.32105        1.76893
H          2.58648       -0.34365        1.57185
H          3.55078       -2.62178        1.27535
H          5.17344       -1.98524        1.53196
H          4.90846       -0.50001       -0.51559
H          3.31986       -1.20173       -0.80618
H          5.35019       -2.40978       -3.06365
H          3.03726       -4.31984       -1.63948
H          4.11397       -4.96677       -0.37871
H          5.59809       -5.98158       -2.16290
H          4.60502       -5.30338       -3.42408
H          2.59171       -6.38553       -0.91831
H          2.21003       -7.97783       -1.57835
