63

C          0.88830        0.18529       -0.08329
C          2.39240        0.31420        0.17380
C          2.99101       -0.87888        0.92793
C          4.49242       -0.74165        1.20087
C          5.11096       -1.94739        1.91643
C          6.61167       -1.79351        2.18453
C          7.25472       -3.01538        2.85265
C          8.76453       -2.86456        3.09008
Si         9.59495       -4.35472        3.93315
C          8.79996       -4.66819        5.59909
C          8.90762       -3.70185        6.62230
C          8.30346       -3.89506        7.86498
C          7.57307       -5.05534        8.14752
C          7.45661       -6.01292        7.13572
C          8.05449       -5.82806        5.88586
P          6.85026       -5.36784        9.90449
C          4.96981       -4.77694        9.31018
F          4.06981       -5.82217        9.18010
F          4.36805       -3.90410       10.20939
F          4.90365       -4.10633        8.10217
C          6.18107       -5.74823       11.69006
C          6.51862       -4.63111       12.65411
S          6.18365       -5.11202       14.39321
C          6.69417       -3.59938       15.26209
C          9.44154       -5.86774        2.80270
C         11.43368       -3.94199        4.13794
H          0.49423        1.05221       -0.63303
H          0.32805        0.10723        0.86064
H          0.66027       -0.71482       -0.67436
H          2.58992        1.23838        0.74343
H          2.92107        0.43553       -0.78755
H          2.80686       -1.80276        0.35084
H          2.45631       -1.01198        1.88487
H          4.67025        0.16840        1.80100
H          5.02137       -0.57788        0.24441
H          4.94038       -2.85567        1.31115
H          4.58506       -2.11976        2.87130
H          6.78081       -0.90518        2.81867
H          7.13257       -1.58647        1.23169
H          7.06212       -3.90315        2.22453
H          6.75204       -3.21536        3.81369
H          8.95391       -1.98054        3.72461
H          9.28403       -2.66791        2.13444
H          9.47256       -2.77985        6.44325
H          8.39287       -3.12991        8.64487
H          6.88048       -6.92300        7.33805
H          7.93446       -6.60163        5.12097
H          7.09758       -3.94471       10.24101
H          6.50139       -6.74599        9.50101
H          8.21195       -5.76007       10.35644
H          6.69697       -6.68142       11.96563
H          5.09885       -5.94347       11.66636
H          5.92724       -3.73106       12.42858
H          7.58778       -4.36836       12.57456
H          6.53649       -3.76742       16.33581
H          6.09091       -2.73512       14.94796
H          7.75807       -3.37903       15.09130
H          8.39137       -6.13347        2.61767
H          9.93526       -6.74367        3.24667
H          9.91514       -5.66702        1.83039
H         11.56869       -3.06763        4.79043
H         11.90417       -3.71924        3.16867
H         11.97036       -4.78430        4.59687
