16

O          1.63161        0.78073       -0.64979
C          2.62904        0.36832       -0.02169
O          3.15220        0.68832        1.06288
C          3.38023       -0.84583       -0.76213
C          2.88247       -2.27646       -0.39488
C          1.37271       -2.66484       -0.63622
C          0.77089       -2.57430       -2.08616
F          1.55361       -3.22129       -2.97954
F         -0.43936       -3.20413       -2.07654
F          0.57632       -1.32473       -2.49640
F          1.26450       -3.99108       -0.27994
F          0.57112       -1.95471        0.18930
F          3.63205       -3.21323       -1.07516
F          3.09206       -2.49169        0.93733
F          3.29268       -0.75326       -2.14204
F          4.73156       -0.86262       -0.47980
