15

In         0.76211        0.06024        0.23621
C          3.06241        0.07007        0.10474
C          3.63458        0.10804       -1.31295
C          5.16930        0.06864       -1.34369
S          5.94956        0.19434       -3.02211
H          0.30072       -1.28935        1.32292
H          0.15398       -0.18381       -1.43139
H          0.25194        1.63957        0.91353
H          3.42095       -0.82921        0.63606
H          3.41947        0.94303        0.67944
H          3.29746        1.01030       -1.85023
H          3.25424       -0.74621       -1.90203
H          5.55214       -0.83987       -0.85614
H          5.59263        0.93198       -0.80708
H          5.22540       -0.79435       -3.59908
