29

I          0.97825       -0.02228        0.12449
Ga         3.45404        0.85101        0.19937
S          4.37338        0.15692       -2.04583
O          3.54302        0.59249       -3.18057
O          5.81608        0.48081       -2.09082
C          4.34227       -1.81910       -2.19472
C          5.41066       -2.43454       -3.14331
C          5.20822       -3.94834       -3.51736
F          5.06712       -4.71091       -2.41242
F          4.13119       -4.13157       -4.30433
F          6.29415       -4.39939       -4.19565
F          5.42321       -1.74887       -4.32058
F          6.63905       -2.34490       -2.56447
F          4.54231       -2.32163       -0.93531
F          3.10622       -2.21178       -2.61129
C          4.61667        0.18669        1.71965
C          4.24982       -1.15576        2.37303
C          3.06130       -1.08233        3.33550
C          6.09225        0.22833        1.29484
H          3.46919        2.38300       -0.17653
H          4.45866        0.98329        2.47277
H          5.13390       -1.52178        2.93215
H          4.05256       -1.91675        1.60122
H          3.26143       -0.36607        4.14884
H          2.85825       -2.06205        3.79449
H          2.14777       -0.75905        2.81738
H          6.32505       -0.55125        0.55609
H          6.75151        0.06562        2.16762
H          6.37228        1.18727        0.83563
