28

N          3.75800        1.56222        2.18210
C          4.51520        0.45815        1.90607
O          4.29645       -0.64532        2.41525
C          5.63213        0.72574        0.90159
C          5.12785        0.61404       -0.55671
In         6.21147        1.85729       -2.04114
S          4.88444        4.18759       -0.93573
O          4.03820        5.02977       -1.78249
O          4.37244        3.94013        0.42809
F          6.24173        5.28092       -0.58288
C          8.21517        2.69632       -1.60715
C          8.56958        2.81334       -0.10824
C          9.64093        3.87020        0.14033
O         10.84467        3.62077        0.24744
N          9.14330        5.14218        0.22388
H          2.91680        1.43446        2.73165
H          3.89105        2.43145        1.66065
H          6.43430       -0.00031        1.09025
H          6.03416        1.72815        1.10499
H          4.09195        0.97947       -0.62669
H          5.10385       -0.43875       -0.87488
H          5.65384        1.84404       -3.71067
H          8.17438        3.69630       -2.06386
H          8.99660        2.13781       -2.14362
H          8.94718        1.85815        0.28025
H          7.68370        3.08689        0.48410
H          8.16342        5.33137        0.01267
H          9.80418        5.90922        0.24399
