26

C          0.88223       -0.07404        0.08365
O          2.29181       -0.13171        0.04613
C          2.88416        0.55567        1.14684
C          4.39988        0.48832        1.02250
O          4.92694        1.10000        2.17609
C          6.36989        1.17227        2.16162
C          6.81877        1.90550        3.41402
C          8.34869        1.99986        3.58070
C          8.98091        2.78234        2.36698
O          9.21056        4.00844        2.57687
O          9.15906        2.11164        1.31325
N          8.63729        2.64552        4.88441
H          0.50758       -0.63070       -0.78569
H          0.51221        0.96888        0.02914
H          0.47619       -0.53385        1.00665
H          2.57145        0.09464        2.10440
H          2.55695        1.61366        1.16262
H          4.73144        1.00723        0.10042
H          4.72185       -0.57098        0.93659
H          6.71997        1.68620        1.25114
H          6.78517        0.14504        2.13494
H          6.40038        1.40197        4.30094
H          6.40419        2.92770        3.40039
H          8.76556        0.97836        3.58109
H          8.76839        3.63466        4.61139
H          9.57976        2.35620        5.15988
