50

N          1.54202        3.70047        2.93026
C          2.66843        2.91390        3.46986
C          3.03211        1.74526        2.55257
C          3.50972        2.12962        1.14301
C          4.71590        3.08880        1.10026
B          6.05493        2.72890        1.94485
S          6.87112        1.02205        1.42726
O          8.20523        0.81849        2.01256
O          5.89858       -0.07147        1.56612
C          7.21761        0.86708       -0.50282
C          8.21401        1.81399       -1.24728
C          9.71109        1.84864       -0.76423
C         10.71290        2.44898       -1.82389
F         10.27483        3.62695       -2.30891
F         11.90601        2.65736       -1.22375
F         10.91568        1.60585       -2.85611
F          9.81034        2.61904        0.34189
F         10.15436        0.59614       -0.48436
F          8.22937        1.43745       -2.57343
F          7.72684        3.08342       -1.19161
F          7.63125       -0.41526       -0.70307
F          6.02288        1.02366       -1.15523
C          7.17224        3.89416        2.02723
C          8.21930        3.83815        2.96633
C          9.14310        4.88157        3.10393
C          9.05518        6.02287        2.30424
C          8.02111        6.09989        1.36669
C          7.10028        5.05482        1.23297
C          7.93564        7.33033        0.50692
F          7.93246        8.48319        1.25107
F          9.00609        7.44513       -0.34186
F          6.82192        7.36900       -0.26957
C         10.26474        4.75799        4.09908
F          9.87893        4.14318        5.25202
F         11.31444        4.03016        3.61039
F         10.78313        5.97192        4.46050
H          1.31303        4.46933        3.56153
H          0.70764        3.11194        2.87878
H          2.47168        2.51565        4.48639
H          3.53191        3.59055        3.56150
H          2.15270        1.07966        2.46427
H          3.81383        1.15122        3.04843
H          2.66988        2.58877        0.59515
H          3.76268        1.19745        0.61644
H          4.38232        4.07318        1.48008
H          4.95547        3.27692        0.03851
H          5.83261        2.32267        3.08163
H          8.31185        2.95488        3.59928
H          9.76679        6.83966        2.41922
H          6.30077        5.15168        0.49845
