18

S          1.41651       -1.84423       -0.59347
B          2.73464       -0.47831       -0.18569
C          3.71327       -1.05987        0.99969
C          4.96753       -1.84189        0.48144
C          5.79820       -2.65397        1.53664
F          6.16866       -1.89903        2.59118
F          5.12035       -3.72442        1.99736
F          6.93801       -3.12243        0.95334
F          4.61670       -2.74679       -0.47715
F          5.84300       -0.95184       -0.08380
F          4.24165       -0.05735        1.81311
F          3.06063       -1.92618        1.88472
C          2.01209        0.91859        0.25546
F          1.12599        1.37639       -0.70590
F          1.27435        0.87998        1.42273
F          2.89292        1.97441        0.43193
H          1.20719       -1.44492       -1.86721
H          3.40578       -0.22562       -1.16679
