21

C          0.96891       -0.01204       -0.24904
C          2.49922        0.01642       -0.17252
C          3.08435        1.00820       -1.19709
N          2.70492        0.60687       -2.53487
S          3.17407        1.54135       -3.70531
O          2.59257        2.90943       -3.71658
O          4.63357        1.54855       -3.98677
C          2.41564        0.67389       -5.10121
C          2.99158        0.32995        1.24501
H          0.66139       -0.17671       -1.29006
H          0.54695        0.95437        0.07539
H          0.53816       -0.80086        0.38899
H          2.87108       -0.98356       -0.46159
H          4.18828        1.03364       -1.04882
H          2.71898        2.02863       -0.92897
H          1.32817        0.66934       -4.96792
H          2.80582       -0.34910       -5.13665
H          2.69380        1.22734       -6.00653
H          2.65068        1.32763        1.56809
H          4.09135        0.32471        1.29567
H          2.61511       -0.40104        1.97849
