45

O          3.87447        5.69554        4.46324
C          4.90858        5.88968        3.59102
O          5.42637        6.98344        3.49339
C          5.31789        4.65140        2.79085
C          4.62018        3.33164        3.12657
In         5.38393        1.59392        1.90871
C          4.67886        2.08112       -0.22729
F          3.32097        1.88961       -0.45190
F          4.89525        3.40938       -0.59185
F          5.29585        1.35264       -1.24281
C          7.60254        1.83689        1.81060
C          8.37343        1.92605        2.98724
C          9.75287        2.13891        2.96731
C         10.41728        2.26897        1.73803
C          9.68140        2.19111        0.54743
C          8.29986        1.98250        0.59518
C         11.89932        2.50342        1.71628
C         12.82811        1.27186        2.04872
C         12.76917       -0.02335        1.15268
C         13.23164       -0.00254       -0.36339
C         14.69439        0.47778       -0.69555
C         15.20545        0.04927       -2.12399
F         14.31750        0.37842       -3.07981
F         16.36349        0.69710       -2.37442
F         15.44594       -1.27251       -2.18663
F         14.74527        1.82993       -0.64659
F         15.57567       -0.03522        0.20294
F         13.12608       -1.29970       -0.78336
F         12.36295        0.74222       -1.08629
F         13.54496       -0.95684        1.77965
F         11.49353       -0.48355        1.13598
F         14.13119        1.68704        2.06659
F         12.51763        0.84674        3.30760
F         12.32858        2.99299        0.50371
F         12.26208        3.44028        2.66850
H          3.63822        4.74377        4.36889
H          6.41119        4.57181        2.90320
H          5.16953        4.91831        1.73154
H          3.53772        3.37498        2.91850
H          4.76170        3.05170        4.18391
H          4.80017        0.01656        2.42124
H          7.88810        1.83637        3.96403
H         10.31166        2.21966        3.90091
H         10.18568        2.30801       -0.41264
H          7.75514        1.94163       -0.35163
