43

N          2.89579       -0.96231        1.79369
C          3.61885       -2.05563        1.40421
O          3.64912       -3.08682        2.07895
C          4.37060       -1.90891        0.07807
C          4.35463       -0.55173       -0.63523
Al         5.42280       -0.37069       -2.33957
C          4.70543       -1.70648       -3.80043
C          3.35570       -1.35857       -4.48179
C          2.64795       -2.46075       -5.35360
C          1.50914       -1.94129       -6.30580
F          0.61179       -1.18615       -5.64032
F          2.00427       -1.21974       -7.32932
F          0.85024       -3.00298       -6.83270
F          3.55328       -3.09015       -6.15223
F          2.07589       -3.38750       -4.53643
F          2.45724       -1.01103       -3.50089
F          3.54364       -0.26094       -5.27989
F          5.63424       -1.86564       -4.83379
F          4.54137       -2.99789       -3.25412
C          7.35350       -0.94075       -2.09058
C          7.77312       -2.27580       -1.90421
C          9.11890       -2.60971       -1.71049
C         10.10563       -1.61692       -1.69633
C          9.71787       -0.29080       -1.88133
C          8.36519        0.03535       -2.07629
C         10.74044        0.81038       -1.85200
F         12.02515        0.34966       -1.83678
F         10.63895        1.64326       -2.92923
F         10.60791        1.60956       -0.74671
C          9.55133       -4.04088       -1.54561
F          8.51922       -4.88920       -1.31391
F         10.20294       -4.51403       -2.65661
F         10.43235       -4.19832       -0.50716
H          2.39544       -0.99318        2.67243
H          2.91949       -0.11422        1.24029
H          3.96574       -2.70071       -0.57361
H          5.40149       -2.23122        0.29937
H          4.75087        0.23550        0.03385
H          3.31942       -0.25715       -0.88735
H          5.38820        1.14510       -2.92192
H          7.03776       -3.08280       -1.91473
H         11.15295       -1.87455       -1.54444
H          8.09756        1.08509       -2.23040
