48

Cl         6.53024       11.28075        1.48903
Al         6.37179       10.71423        3.60990
C          6.48838        8.71183        3.72959
C          6.43310        7.87898        2.59487
C          6.48325        6.48450        2.69126
C          6.59869        5.84356        3.94013
C          6.67899        6.66849        5.08231
C          6.62581        8.06006        4.97319
Si         6.56845        3.98078        4.10661
C          8.28067        3.33385        4.66879
C          8.29606        1.83053        4.97935
C          9.67381        1.30236        5.34124
C          9.75339       -0.18959        5.83449
C          9.18630       -1.35766        4.94104
C          9.76165       -1.64824        3.49558
C         11.29036       -1.99647        3.35698
C         11.68985       -2.62212        1.96604
F         11.18478       -3.85964        1.81878
F         11.26585       -1.85189        0.94792
F         13.03447       -2.70728        1.91130
F         12.02374       -0.87028        3.51239
F         11.64647       -2.89654        4.31106
F          9.05471       -2.72419        3.03955
F          9.48116       -0.59008        2.69519
F          9.32110       -2.50141        5.66618
F          7.85184       -1.13957        4.75674
F         11.05100       -0.49639        6.11809
F          9.04077       -0.26968        6.99902
F         10.54735        1.42768        4.28547
F         10.21437        2.02354        6.38214
C          5.28505        3.46800        5.40334
C          6.15041        3.15488        2.45496
I          3.99983       11.43718        4.50436
H          7.47248       11.48136        4.50004
H          6.34075        8.33783        1.60570
H          6.41930        5.88749        1.77600
H          6.77082        6.21859        6.07732
H          6.67910        8.65607        5.89048
H          8.59830        3.90822        5.55208
H          9.00374        3.56629        3.87136
H          7.94260        1.25007        4.11503
H          7.62492        1.59549        5.81878
H          5.52128        3.89939        6.38690
H          5.21235        2.37629        5.51889
H          4.29335        3.84312        5.11340
H          6.90414        3.38432        1.68805
H          5.17768        3.50447        2.08098
H          6.09316        2.06067        2.55334
