9

F          1.50377       -1.04762        0.60425
C          2.32875       -0.06427        0.00142
N          2.93228       -0.38687       -1.14130
C          2.25903       -0.68093       -2.25217
F          1.35647       -1.77216       -2.20297
F          1.44963        0.33881       -2.81415
F          3.12182       -1.01730       -3.28830
F          1.47406        1.06605       -0.00426
F          3.25592        0.23246        0.99293
