26

C          0.74370       -0.16217        0.01525
C          2.26124       -0.01002        0.15028
C          2.88958        0.84797       -0.95232
C          4.40917        0.99241       -0.82221
C          4.99332        1.89151       -1.91787
C          6.52686        1.95067       -2.10373
C          7.25790        2.42151       -0.83540
F          6.81031        3.65902       -0.41633
F          7.11407        1.59894        0.24134
F          8.59691        2.56025       -1.03722
C          7.12390        0.54373       -2.61115
O          6.95887       -0.46545       -1.89982
O          7.68240        0.66236       -3.74455
O          6.81723        2.90507       -3.11118
H          0.31992       -0.77660        0.82381
H          0.47711       -0.63922       -0.94057
H          0.24215        0.81776        0.04274
H          2.73567       -1.00544        0.14430
H          2.50137        0.43265        1.13218
H          2.41521        1.84744       -0.94630
H          2.64875        0.40578       -1.93617
H          4.89757        0.00754       -0.87970
H          4.64569        1.40252        0.17270
H          4.64063        2.92930       -1.78761
H          4.61149        1.55983       -2.89754
H          7.32521        2.29378       -3.73715
