36

C          4.60423        0.84870       -2.74642
C          4.28341        0.31650       -1.34708
C          4.97875       -1.01397       -1.04141
C          4.62665       -1.54072        0.35720
C          5.32243       -2.88472        0.66858
S          4.71058       -3.34712        2.33989
O          5.60616       -2.87435        3.39914
O          3.28256       -3.09717        2.46257
C          4.87401       -5.26754        2.49029
C          4.66037       -5.76513        3.96312
F          5.67482       -5.40599        4.77176
F          3.50719       -5.30922        4.48576
F          4.60508       -7.12624        3.96346
F          3.94912       -5.87917        1.72230
F          6.11584       -5.67908        2.11926
C          4.77647       -4.02545       -0.42783
O          3.57746       -3.89248       -0.73607
O          5.66317       -4.81664       -0.80272
C          6.86192       -2.82260        0.66286
C          7.53095       -1.61012        1.31587
N          8.99801       -1.71867        1.14339
H          4.09694        1.80454       -2.94648
H          4.28986        0.13310       -3.52084
H          5.68605        1.01149       -2.87048
H          3.19349        0.18463       -1.24270
H          4.57432        1.06721       -0.59144
H          6.06865       -0.88129       -1.14823
H          4.67393       -1.76775       -1.78351
H          3.54423       -1.71485        0.40362
H          4.88194       -0.77681        1.11323
H          7.16238       -2.87765       -0.39343
H          7.26351       -3.74489        1.10672
H          7.22212       -1.53466        2.37053
H          7.21381       -0.68373        0.81063
H          9.30951       -2.60665        1.54537
H          9.46080       -0.99027        1.69066
