27

C          6.98001        2.33595        0.22668
S          6.19158        1.73999       -1.29769
C          5.90066       -0.00500       -0.78613
C          4.94974       -0.72967       -1.73738
B          5.46227       -0.87809       -3.31624
C          4.38467       -1.78381       -4.17687
C          3.01418       -1.12983       -4.30581
C          1.95278       -1.84009       -5.13537
O          2.08492       -2.91003       -5.72214
N          0.72510       -1.18067       -5.16586
N          6.88261       -1.51103       -3.45714
H          7.20757        3.40205        0.08881
H          7.92109        1.80261        0.43135
H          6.31391        2.22727        1.09743
H          5.52546        0.04657        0.25250
H          6.88181       -0.51133       -0.77091
H          3.95825       -0.24013       -1.66736
H          4.81441       -1.74976       -1.31629
H          5.50499        0.26838       -3.81721
H          4.25672       -2.78819       -3.72469
H          4.79294       -1.96341       -5.18576
H          3.13493       -0.11492       -4.73416
H          2.56855       -0.95338       -3.30915
H          0.68943       -0.20164       -4.90588
H          0.06601       -1.49542       -5.86982
H          6.96009       -2.40082       -2.95285
H          7.61104       -0.90902       -3.06694
