22

N          1.19267        0.57228       -0.35225
C          2.49313       -0.13462       -0.15816
B          2.96481       -0.18081        1.41454
C          1.86235       -1.02323        2.32883
C          2.18382       -1.13959        3.83061
C          2.15448        0.22131        4.52118
S          2.68585        0.21836        6.28247
N          4.42099       -0.75461        1.48114
H          1.11739        0.93919       -1.30446
H          1.20599        1.39314        0.25992
H          3.31251        0.33232       -0.74321
H          2.37356       -1.16252       -0.56284
H          3.00896        1.01319        1.81152
H          1.79002       -2.05516        1.92472
H          0.84718       -0.59590        2.20945
H          3.19006       -1.57589        3.96153
H          1.48394       -1.81550        4.36298
H          1.15496        0.67534        4.46097
H          2.85311        0.90891        4.02353
H          1.84188       -0.75526        6.70434
H          4.42407       -1.76656        1.31196
H          4.83253       -0.64528        2.41090
