39

I          4.51570       -2.58359        0.06011
In         4.07671        0.19143        0.39247
C          1.80020        0.59631        0.41214
C          0.94049        0.26869       -0.82406
F          1.42051        0.90158       -1.92490
F          0.94028       -1.06111       -1.07451
F         -0.36824        0.64926       -0.69103
F          1.15652       -0.01503        1.48515
F          1.62821        1.97855        0.61512
C          4.90999        1.19008       -1.39727
C          5.71763        0.53151       -2.34208
C          6.27030        1.21091       -3.43330
C          6.03398        2.58639       -3.63799
C          5.20284        3.24063       -2.70788
C          4.65807        2.55664       -1.61614
Si         6.87140        3.52985       -5.02393
C          6.62043        2.63355       -6.69318
C          7.28371        3.34931       -7.87585
C          7.15238        2.63098       -9.20179
F          5.85549        2.44330       -9.57406
F          7.74800        3.33893      -10.21287
F          7.74160        1.40185       -9.19247
C          6.17000        5.28268       -5.17092
C          8.73518        3.64230       -4.69608
H          4.66386        0.65123        1.97720
H          5.91978       -0.53780       -2.22385
H          6.90108        0.65327       -4.13468
H          4.97553        4.30391       -2.83035
H          4.01716        3.11305       -0.92528
H          5.53919        2.52824       -6.87166
H          7.01971        1.61128       -6.60026
H          8.36356        3.48475       -7.71180
H          6.85412        4.35089       -8.02880
H          5.09447        5.26775       -5.39814
H          6.67699        5.84942       -5.96572
H          6.30559        5.84177       -4.23437
H          9.18040        2.63922       -4.62802
H          8.91827        4.14734       -3.73704
H          9.27026        4.20178       -5.47797
