24

C          1.01471        0.15257       -0.07689
Ga         2.90091       -0.58545        0.00325
C          3.91979        0.24416        1.59540
O          3.14554        0.04102        2.86232
C          3.73926        0.35313        3.99156
F          4.86889       -0.39143        4.27881
F          4.15627        1.66833        4.08816
F          2.87620        0.14907        5.02967
C          4.02417       -0.16303       -1.65655
C          5.50539       -0.52887       -1.51270
C          6.33522       -0.41373       -2.80257
H          0.54643        0.11965        0.91918
H          0.38957       -0.44666       -0.75819
H          0.99016        1.19661       -0.42827
H          2.90727       -2.18921        0.23082
H          4.08028        1.33014        1.49943
H          4.89909       -0.23847        1.74012
H          3.92469        0.90546       -1.92210
H          3.58256       -0.73055       -2.49669
H          5.59591       -1.56080       -1.12744
H          5.97022        0.10967       -0.74016
H          5.95362       -1.10069       -3.57520
H          7.40128       -0.65115       -2.64044
H          6.27729        0.60522       -3.21842
