37

C          2.80614        1.10478       -1.15349
C          2.19568        0.20822       -0.06850
Ta         3.31565        0.09099        1.77909
C          1.76691       -0.29919        3.38152
C          0.81779        0.77016        3.98959
C         -0.13778        1.47769        3.03667
O         -1.35444        1.39317        3.11823
O          0.42889        2.24981        2.08895
C          5.20139        1.17581        2.06721
C          5.37885        2.25578        3.13994
C          5.04844        1.69700        4.53342
C          5.36406        2.64203        5.67039
C          5.02137        2.08827        7.08802
F          3.70413        1.80788        7.19384
F          5.71460        0.95054        7.33710
F          5.33538        2.98122        8.05591
F          6.70992        2.95770        5.70915
F          4.68430        3.83396        5.55132
H          2.16686        1.18256       -2.05068
H          3.78600        0.72443       -1.47921
H          2.95545        2.13130       -0.78343
H          2.02916       -0.81796       -0.44284
H          1.20643        0.60489        0.23788
H          4.36960       -0.95924        0.71886
H          3.73956       -1.46057        2.58674
H          2.81814        1.89109        2.17059
H          2.32330       -0.73755        4.22767
H          1.16203       -1.15027        3.00819
H          1.42921        1.55639        4.46651
H          0.17765        0.33643        4.77447
H          1.44868        2.13885        2.12817
H          5.36727        1.61246        1.06143
H          5.97251        0.39030        2.18380
H          4.70118        3.09630        2.92821
H          6.40846        2.65577        3.15121
H          5.60784        0.76585        4.71359
H          3.97630        1.44904        4.58936
