35

C          0.90135       -0.90948       -0.41577
C          2.41709       -0.72005       -0.30138
C          2.99071       -1.19372        1.03738
C          4.51021       -1.03748        1.16749
C          5.04898       -1.43121        2.55224
C          6.54175       -1.31747        2.77440
C          6.98699        0.13113        2.83303
C          8.48275        0.35103        2.54665
N          8.77939       -0.09988        1.17149
C          6.94456       -2.04717        4.04117
C          6.94591       -3.58266        3.93038
N          7.86196       -3.98919        2.84630
H          0.51139       -0.55404       -1.38204
H          0.37366       -0.35987        0.37940
H          0.62651       -1.97104       -0.31487
H          2.66707        0.34544       -0.44385
H          2.91823       -1.25813       -1.12454
H          2.71911       -2.25498        1.19151
H          2.49816       -0.63831        1.85643
H          4.78341        0.00834        0.94236
H          5.01990       -1.65145        0.40433
H          4.72328       -2.47088        2.74281
H          4.47303       -0.81587        3.31463
H          6.75568        0.61346        3.82942
H          6.43319        0.73008        2.08830
H          9.07837       -0.18958        3.31007
H          8.73504        1.42317        2.64588
H          8.20628       -0.95953        1.08295
H          9.75464       -0.39812        1.10572
H          6.28847       -1.77321        4.92220
H          7.96505       -1.74394        4.33646
H          5.90588       -3.93280        3.76452
H          7.27860       -4.02956        4.88552
H          7.69914       -3.26227        2.12319
H          7.56111       -4.87981        2.44598
