27

N          1.09476       -0.34125        0.14245
Sb         3.05643        0.53152       -0.37884
C          3.83899        0.21247        1.75368
C          4.93348        1.20400        2.10508
C          5.48670        1.09459        3.53551
C          3.70886       -1.57863       -0.94119
C          3.50720       -1.89439       -2.41318
C          4.01443       -3.27855       -2.85153
H          0.58678        0.41245        0.62227
H          1.27562       -1.02487        0.88875
H          4.66915        1.21283       -0.85257
H          2.46691        2.16323        0.15206
H          2.42926        0.80718       -2.03011
H          4.19042       -0.83081        1.83072
H          2.95653        0.33194        2.40358
H          4.54860        2.22870        1.94926
H          5.76724        1.09409        1.38931
H          4.68844        1.23613        4.28154
H          6.26977        1.84760        3.73372
H          5.92581        0.10002        3.71475
H          3.13167       -2.26672       -0.30172
H          4.77182       -1.64548       -0.65307
H          4.00838       -1.12258       -3.02514
H          2.43423       -1.80807       -2.65502
H          5.09142       -3.38793       -2.64597
H          3.85862       -3.45531       -3.93024
H          3.49627       -4.08166       -2.30319
