24

C          0.97782        0.04605       -0.29917
C          2.50393       -0.03071       -0.18738
C          3.00580       -0.23466        1.24614
C          4.52838       -0.32696        1.36508
C          5.02222       -0.54156        2.80179
N          6.45952       -0.61698        2.81542
C          7.10146       -0.91652        3.89823
C          6.78335       -0.28260        5.29165
F          5.52738       -0.57755        5.73225
F          7.64024       -0.62806        6.29333
F          6.84025        1.09092        5.21542
F          6.99424       -2.46291        4.38508
F          8.49500       -0.80211        3.76088
H          0.64808        0.20520       -1.33716
H          0.57578        0.87188        0.30860
H          0.50667       -0.88185        0.06126
H          2.94998        0.89121       -0.59893
H          2.87856       -0.85233       -0.82193
H          2.55011       -1.15229        1.66084
H          2.63628        0.59304        1.87885
H          4.99777        0.59087        0.97036
H          4.91028       -1.15480        0.74381
H          4.54915       -1.46752        3.19599
H          4.61573        0.29052        3.42479
