46

F          2.46812       -0.37527       -0.64437
C          3.23276        0.11718        0.35045
C          2.38523        0.45859        1.61864
C          1.79886       -0.70320        2.38890
C          0.81823       -1.61512        1.64320
C          0.13285       -2.59419        2.60574
N         -0.70249       -3.49552        1.86914
C         -1.36188       -4.41419        2.56714
C         -2.20468       -5.35380        1.86348
C         -2.92792       -6.33039        2.50625
C         -2.88115       -6.47325        3.91972
C         -2.05986       -5.57762        4.64061
C         -1.32631       -4.59401        4.00503
C         -3.70165       -7.47088        4.62270
C         -4.97360       -6.95854        5.40528
C         -6.07020       -6.11760        4.64366
C         -6.91334       -6.72297        3.45228
C         -7.82184       -8.00422        3.64514
C         -8.95194       -7.99098        4.74037
F         -9.72195       -6.89051        4.64010
F         -9.74092       -9.07381        4.54216
F         -8.45477       -8.06570        5.98207
F         -8.46480       -8.16920        2.44893
F         -7.05220       -9.09427        3.86074
F         -7.75322       -5.71882        3.05446
F         -6.09127       -7.00657        2.41593
F         -6.99162       -5.73518        5.59025
F         -5.50167       -4.99351        4.15030
F         -5.62893       -8.01118        6.00277
F         -4.55333       -6.13364        6.41141
F         -4.17344       -8.46512        3.77873
F         -2.98681       -8.13177        5.63963
F          3.23449        1.17986        2.44430
F          1.40944        1.33841        1.20372
F          4.18228       -0.80228        0.65055
F          3.86137        1.21975       -0.12213
H          1.29741       -0.23759        3.25399
H          2.64174       -1.28620        2.79047
H          1.33294       -2.20260        0.86937
H          0.04672       -1.02234        1.12999
H         -0.42874       -1.99500        3.36620
H          0.92934       -3.12098        3.19048
H         -2.24251       -5.26239        0.77623
H         -3.54083       -7.01566        1.92013
H         -1.99218       -5.66971        5.72700
H         -0.70121       -3.93902        4.61286
