107

N          2.72232       -0.21408        1.12288
C          3.53530       -0.11092       -0.10556
C          4.24949        1.23623       -0.18810
C          5.16695        1.36613       -1.41624
C          5.91290        2.69859       -1.51955
Ta         7.69146        2.90517       -2.78737
C          8.90677        1.39028       -1.72862
C          9.72108        1.79288       -0.64180
C         10.33140        0.87180        0.21666
C         10.13743       -0.51382        0.06290
C          9.30807       -0.92795       -1.00037
C          8.73137       -0.00399       -1.87413
Si        11.15194       -1.72946        1.06862
C         12.91271       -1.69095        0.34180
C         12.92022       -1.84958       -1.18690
C         14.26073       -1.55284       -1.86886
C         14.14233       -1.52981       -3.39634
C         15.43172       -1.14916       -4.12894
C         15.26529       -1.08901       -5.65084
C         16.53100       -0.66351       -6.40247
C         16.34868       -0.62833       -7.92263
C         11.23197       -1.24689        2.89780
C         10.45134       -3.48447        0.94186
C          8.57600        4.81129       -2.12895
C          9.94748        5.08890       -2.34519
C         10.59964        6.16133       -1.73680
C          9.91632        7.05025       -0.87762
C          8.54989        6.79225       -0.65935
C          7.90677        5.70462       -1.26009
Si        10.76564        8.57550       -0.19185
C         12.54150        8.21596        0.39417
C         12.69478        7.42642        1.70264
C         14.15680        7.25139        2.13740
C         14.33347        6.63052        3.52757
C         15.80051        6.50210        3.95405
C         15.99554        5.98048        5.38142
C         17.46643        5.85919        5.79643
C         17.65915        5.35866        7.23058
C         10.89781        9.88554       -1.55577
C          9.78631        9.31190        1.25348
H          2.19804       -1.09057        1.12759
H          2.02515        0.53348        1.13354
H          2.94759       -0.26438       -1.03396
H          4.28700       -0.91689       -0.07376
H          4.84061        1.38007        0.73151
H          3.49947        2.04920       -0.20327
H          4.57993        1.21424       -2.33760
H          5.88987        0.53165       -1.38188
H          6.39621        2.91961       -0.53634
H          5.20161        3.52698       -1.70248
H          8.32895        1.87194       -4.09086
H          6.41621        2.63728       -3.99894
H          7.94351        3.83826       -4.29483
H          9.89485        2.85749       -0.45504
H         10.97276        1.24846        1.02127
H          9.12961       -1.99496       -1.16704
H          8.13196       -0.37937       -2.70981
H         13.54980       -2.45095        0.82733
H         13.34372       -0.70995        0.61092
H         12.16247       -1.17394       -1.61636
H         12.59372       -2.86899       -1.45880
H         15.02146       -2.29098       -1.55635
H         14.62748       -0.57109       -1.51961
H         13.34650       -0.81761       -3.67528
H         13.79646       -2.51681       -3.75282
H         16.23203       -1.86701       -3.87348
H         15.77902       -0.16663       -3.76247
H         14.44581       -0.39105       -5.89686
H         14.93668       -2.07697       -6.02074
H         17.35675       -1.34938       -6.14485
H         16.84460        0.33264       -6.04607
H         16.07930       -1.62121       -8.31411
H         17.26629       -0.30613       -8.43565
H         15.54476        0.06563       -8.21041
H         11.63044       -0.23063        3.02665
H         11.88374       -1.93659        3.45443
H         10.23297       -1.27495        3.35492
H         10.49601       -3.87119       -0.08553
H          9.40156       -3.51327        1.26637
H         11.02470       -4.16888        1.58420
H         10.52673        4.44416       -3.01512
H         11.66435        6.31509       -1.94408
H          7.96937        7.44502        0.00050
H          6.84712        5.55146       -1.02975
H         13.04324        9.19556        0.49783
H         13.07513        7.69866       -0.42228
H         12.21713        6.43727        1.60146
H         12.14851        7.94193        2.51190
H         14.65136        8.23972        2.12353
H         14.68934        6.63980        1.38786
H         13.85278        5.63718        3.55582
H         13.79362        7.24750        4.26827
H         16.29010        7.48856        3.86191
H         16.32944        5.83873        3.24707
H         15.50553        4.99600        5.48401
H         15.47348        6.65025        6.08828
H         17.95617        6.84166        5.68140
H         17.98556        5.18188        5.09697
H         17.17647        6.03062        7.95652
H         18.72360        5.29102        7.49737
H         17.21905        4.35913        7.36676
H         11.48234        9.49968       -2.40311
H         11.38371       10.80315       -1.19162
H          9.90009       10.14857       -1.93422
H          9.61615        8.56815        2.04422
H          8.80495        9.68198        0.92515
H         10.33336       10.15860        1.69392
