35

C          0.49427        1.39713        5.20355
C          2.00434        1.15745        5.29785
C          2.75822        1.46743        3.99893
C          4.27315        1.20712        4.06527
C          5.04581        1.46053        2.76749
Ga         7.04751        1.00175        2.91867
C          7.91204        0.46137        1.12651
C          8.05321       -1.05654        0.93706
C          6.71314       -1.78353        0.77325
C          6.85371       -3.30373        0.64831
C          8.07597        2.53259        3.81652
H         -0.02392        1.16164        6.14615
H          0.04549        0.77686        4.41202
H          0.27541        2.44779        4.95619
H          2.19248        0.10721        5.58059
H          2.42396        1.76786        6.11630
H          2.58202        2.52229        3.71788
H          2.32870        0.86285        3.17877
H          4.43575        0.16109        4.38486
H          4.69813        1.82457        4.87931
H          4.93159        2.51844        2.46481
H          4.60182        0.85641        1.95435
H          7.13524       -0.33302        3.86953
H          8.91385        0.92587        1.09919
H          7.35472        0.88961        0.27207
H          8.56342       -1.48566        1.81963
H          8.68883       -1.31474        0.06168
H          6.19266       -1.38508       -0.11615
H          6.07617       -1.54067        1.63899
H          7.49311       -3.57948       -0.20660
H          5.88016       -3.79994        0.50893
H          7.31608       -3.72876        1.55298
H          8.98422        2.79647        3.24942
H          8.39512        2.24425        4.83080
H          7.46612        3.44660        3.90945
