32

C          3.43087       -3.01953        0.68609
C          2.54279       -2.41933       -0.40907
C          2.77016       -0.91984       -0.65134
In         4.75128       -0.30611       -1.55238
C          6.01192        0.60957        0.12846
C          6.23840       -0.35696        1.28981
C          7.01120        0.14775        2.51226
O          7.27926       -0.51957        3.49230
O          7.39479        1.45418        2.44045
C          5.87159       -2.20991       -2.14452
C          6.72277       -2.08501       -3.40494
C          7.48309       -3.32854       -3.87695
O          8.15308       -3.39366       -4.88952
O          7.36613       -4.41160       -3.05788
H          3.22803       -4.09168        0.83636
H          3.26374       -2.51326        1.64996
H          4.49761       -2.91069        0.44219
H          1.48738       -2.61887       -0.13343
H          2.70988       -2.98196       -1.34454
H          2.64159       -0.37109        0.29881
H          1.99272       -0.53444       -1.33106
H          4.63780        0.80239       -2.94080
H          5.44594        1.50308        0.44464
H          6.96260        0.93575       -0.32536
H          6.77238       -1.26443        0.96226
H          5.28223       -0.73381        1.68945
H          7.06508        1.75656        1.55893
H          5.09141       -2.98222       -2.25681
H          6.48536       -2.46438       -1.26219
H          7.48761       -1.29803       -3.29453
H          6.11895       -1.75699       -4.26643
H          6.77304       -4.10812       -2.32772
