37

C          3.93772        4.38645       -3.70607
C          4.02249        3.17409       -2.77448
C          4.84269        2.02423       -3.36404
C          4.96939        0.80159       -2.45081
C          5.86208       -0.29639       -3.03995
In         8.05484        0.18142       -3.25911
C          8.96192       -0.39397       -1.22983
O          7.89901       -0.41517       -0.17402
C          8.21541       -0.93865        0.99225
F          9.27242       -0.32584        1.63657
F          7.14629       -0.84671        1.83386
F          8.55960       -2.27622        0.94875
C          8.97177       -1.39373       -4.60605
C          8.53944       -2.80667       -4.22052
C          9.26173       -3.96811       -4.92504
S          9.00380       -4.09272       -6.74149
H          3.35596        5.20958       -3.26408
H          3.46396        4.11675       -4.66292
H          4.94270        4.77079       -3.93759
H          3.00489        2.81908       -2.53301
H          4.47211        3.47944       -1.81400
H          5.85559        2.38588       -3.61197
H          4.39078        1.70988       -4.32356
H          3.94642        0.42455       -2.23519
H          5.37375        1.12675       -1.47558
H          5.46656       -0.61404       -4.02120
H          5.83185       -1.18785       -2.39206
H          8.50122        1.85427       -3.68210
H          9.74800        0.28623       -0.86889
H          9.38300       -1.41133       -1.27453
H         10.07044       -1.30691       -4.52986
H          8.71220       -1.18853       -5.65604
H          7.45198       -2.93185       -4.36948
H          8.70380       -2.97519       -3.13881
H          9.00118       -4.94197       -4.48117
H         10.35251       -3.84501       -4.83503
H          7.67526       -4.35269       -6.68649
