30

C          0.94206       -0.07390       -0.02065
C          2.46749       -0.02541       -0.14318
C          3.01118       -0.85344       -1.31203
C          4.53506       -0.81228       -1.44603
C          5.07157       -1.60468       -2.64038
C          6.60451       -1.62897       -2.70592
N          7.14068       -2.31910       -1.55570
C          8.42079       -2.30249       -1.36454
C          8.87416       -3.04365       -0.08320
C          8.36265       -4.51660        0.07099
F          7.04132       -4.59453        0.31173
F          8.64812       -5.27425       -1.00732
F          8.98927       -5.10094        1.14368
F         10.24172       -3.11044        0.00871
F          8.43763       -2.38383        1.04453
F          9.31102       -2.86019       -2.45112
F          9.11316       -0.96531       -1.24918
H          0.57771        0.53105        0.82308
H          0.58996       -1.10577        0.13202
H          0.45910        0.30415       -0.93533
H          2.92610       -0.38146        0.79445
H          2.79521        1.02193       -0.25965
H          2.54497       -0.49790       -2.25045
H          2.68507       -1.90276       -1.19374
H          5.00980       -1.21021       -0.53494
H          4.86724        0.23872       -1.53227
H          4.66993       -1.18236       -3.58013
H          4.71265       -2.64687       -2.57360
H          6.97105       -0.58151       -2.77340
H          6.90660       -2.11828       -3.65625
