16

O          1.01196       -0.25594        0.08694
C          2.33093        0.08798       -0.14743
O          2.72477        0.14049       -1.29102
C          3.11525        0.39624        1.10617
C          4.63197        0.22366        0.97677
C          5.32266        0.38770        2.33866
C          4.88425       -0.74495        3.34374
O          5.60427       -1.74885        3.48757
O          3.74798       -0.46766        3.84142
Cl         7.13633        0.46222        2.03617
H          0.89725       -0.32144        1.05189
H          2.76568       -0.20246        1.96666
H          2.87750        1.44156        1.37714
H          5.03516        0.94941        0.25632
H          4.86276       -0.77931        0.58564
H          5.08837        1.36437        2.78156
