20

C          0.82635        0.02558        0.04141
C          2.33259       -0.24509        0.00320
C          2.99868       -0.27127        1.38190
C          4.53658       -0.32973        1.30321
C          5.18998        0.94257        0.79564
S          5.18387        2.20103        2.08563
C          6.61122        0.69388        0.32636
H          0.37951        0.01504       -0.96635
H          0.61746        1.01084        0.48735
H          0.29226       -0.72487        0.64774
H          2.85350        0.52746       -0.58713
H          2.51984       -1.20852       -0.50671
H          2.60891       -1.12657        1.96887
H          2.72802        0.64408        1.93877
H          4.81273       -1.14823        0.60783
H          4.91310       -0.67808        2.30973
H          4.42820        3.20136        1.54083
H          6.61859       -0.04250       -0.50002
H          7.32160        0.27927        1.10515
H          7.08467        1.61273       -0.05514
