51

N          8.16932       -1.54485        3.64682
C          7.23337       -1.21677        2.53026
C          6.21007       -2.31196        2.28574
In         4.67293       -1.76337        0.71249
C          5.78144       -0.37605       -0.69969
C          6.90259       -0.80259       -1.44365
C          7.63311        0.05852       -2.26912
C          7.27789        1.41771       -2.40551
C          6.16418        1.86081       -1.66460
C          5.44694        0.98602       -0.83809
Si         8.23816        2.54753       -3.54668
C          8.32848        1.72436       -5.27117
C          8.97505        2.58194       -6.36403
C          9.06524        1.90178       -7.71356
F          7.84682        1.53555       -8.20125
F          9.62752        2.72477       -8.65489
F          9.83156        0.77398       -7.68227
C          7.39446        4.23396       -3.72750
C         10.01317        2.83055       -2.93942
C          3.09287       -0.47481        1.73054
C          3.52925       -0.01670        3.10555
S          2.25416        1.05103        3.93858
C          3.06815        1.37382        5.53359
H          8.96483       -0.89837        3.63444
H          8.56066       -2.47345        3.46769
H          7.77388       -1.00322        1.58806
H          6.73109       -0.27557        2.81292
H          5.67934       -2.54503        3.22385
H          6.71917       -3.23840        1.96587
H          3.99382       -3.16561       -0.14240
H          7.22544       -1.84775       -1.38082
H          8.49490       -0.33960       -2.81834
H          5.84596        2.90664       -1.73323
H          4.59312        1.39027       -0.28342
H          7.30203        1.45408       -5.56320
H          8.87663        0.77477       -5.16495
H         10.00423        2.86993       -6.09987
H          8.41204        3.51309       -6.52819
H          6.38000        4.13551       -4.13948
H          7.96836        4.89746       -4.39153
H          7.31066        4.73829       -2.75436
H         10.53938        1.87519       -2.80112
H         10.00623        3.34588       -1.96836
H         10.60021        3.44432       -3.63980
H          2.16044       -1.05669        1.79245
H          2.89075        0.39250        1.08126
H          4.45243        0.58261        3.06576
H          3.71403       -0.86599        3.78127
H          2.41496        2.04087        6.11232
H          4.03968        1.86966        5.39272
H          3.21866        0.44534        6.10326
