56

Br         0.95406       -0.75300        0.59313
C          2.75702       -0.21542        0.08175
C          3.20727       -0.48366       -1.20187
C          4.56070       -0.14025       -1.61152
C          5.01594       -0.33865       -2.89763
C          4.21982       -0.91750       -3.93110
C          2.90537       -1.29358       -3.52670
C          2.41987       -1.10255       -2.24965
Si         4.84650       -1.08415       -5.64738
C          6.51920       -2.03409       -5.68870
C          6.41032       -3.45344       -5.11987
C          7.74019       -4.18008       -5.08048
C          7.75697       -5.62136       -4.45413
C          6.87431       -6.77137       -5.07315
C          7.09515       -7.27973       -6.55742
C          8.51873       -7.81647       -6.96318
C          8.53364       -8.66538       -8.29179
F          7.91984       -8.01249       -9.29610
F          9.81824       -8.88118       -8.64592
F          7.94125       -9.86061       -8.12192
F          9.35991       -6.77362       -7.15163
F          9.01304       -8.61709       -5.98241
F          6.21478       -8.31487       -6.71456
F          6.74081       -6.29654       -7.41963
F          7.02672       -7.85518       -4.26065
F          5.56781       -6.39178       -5.01715
F          9.04390       -6.08504       -4.43678
F          7.33655       -5.51356       -3.16087
F          8.29128       -4.29383       -6.34369
F          8.65706       -3.48148       -4.32523
C          3.61855       -2.01789       -6.75773
C          5.24415        0.57538       -6.49347
C          3.49167        0.44073        1.20122
C          4.11306       -0.50754        2.25164
C          4.82822        0.24190        3.37886
H          5.24707        0.28677       -0.87772
H          6.04807       -0.03678       -3.11627
H          2.23428       -1.75838       -4.25753
H          1.40264       -1.41555       -2.01172
H          7.24173       -1.45196       -5.09489
H          6.90567       -2.06232       -6.72042
H          5.71605       -4.05915       -5.71980
H          6.00572       -3.42318       -4.09583
H          3.37735       -3.01383       -6.35901
H          4.02219       -2.14516       -7.77357
H          2.67303       -1.46269       -6.84126
H          5.95338        1.15695       -5.88628
H          4.33117        1.17929       -6.59632
H          5.68350        0.44059       -7.49449
H          2.82532        1.14701        1.73441
H          4.29867        1.06375        0.77328
H          4.81286       -1.18866        1.74182
H          3.31229       -1.13957        2.66775
H          5.65527        0.85519        2.98675
H          5.24916       -0.44354        4.13020
H          4.13636        0.92348        3.89953
