18

F          2.70386        1.99022       -0.58707
Nb         3.62317        0.32277       -0.28176
C          4.78940        0.39977       -2.20004
C          3.72213        0.56268       -3.32560
C          3.84311        1.89604       -4.04033
O          4.37994        2.04656       -5.14209
N          3.29858        2.95574       -3.35399
S          3.84695       -0.11182        2.10868
H          2.46468       -0.86064        0.34421
H          5.34446        0.41630        0.10673
H          3.25848       -1.08075       -1.29204
H          5.48321       -0.41249       -2.44507
H          5.40324        1.31642       -2.11662
H          2.69189        0.47864       -2.92280
H          3.81633       -0.23370       -4.07523
H          3.01622        2.84379       -2.38092
H          3.53024        3.88380       -3.68806
H          4.98501        0.53257        2.49381
