10

S          1.25508       -0.27713        0.70520
N          2.89652       -0.33971        0.24485
S          3.13832       -1.01783       -1.19787
O          2.80509       -2.45177       -1.32021
O          2.69264       -0.20110       -2.34762
C          4.94739       -0.93112       -1.19121
H          0.78753        0.81860        0.01713
H          5.32136       -1.49679       -0.33106
H          5.25510        0.11787       -1.13007
H          5.28147       -1.38546       -2.13201
