12

O          2.61280        2.08636       -0.34021
Ga         2.88202        0.37579        0.25465
S          3.77466       -0.43357       -1.94230
O          3.33774        0.52820       -2.98150
O          5.20583       -0.79855       -1.90475
C          2.95694       -2.08389       -2.54920
F          1.65618       -1.92261       -2.87714
F          3.60619       -2.54193       -3.64913
F          3.03324       -3.04381       -1.59441
Cl         0.96089       -0.74582        0.51265
H          2.46452        2.04425       -1.30083
H          3.89831        0.12764        1.40520
