13

Cl         3.32910        2.24691        1.66150
Sb         3.34189        0.43719       -0.15060
C          4.12553       -1.05467        1.48126
C          3.56341       -2.49830        1.52392
F          3.51751       -3.04150        0.28292
F          4.36221       -3.31837        2.28107
F          2.33377       -2.54819        2.06068
F          5.46811       -1.19247        1.15403
F          4.07085       -0.57626        2.75655
Cl         0.93466       -0.15580        0.43979
H          3.32280       -0.84707       -1.33318
H          5.01476        0.84210       -0.43652
H          2.66328        1.64653       -1.18090
