56

C          9.01278       -5.61148        1.22666
C          8.66356       -4.15234        0.92402
C          9.11298       -3.18171        2.02041
C          8.76068       -1.71891        1.73454
C          9.21322       -0.75059        2.83152
C          8.84480        0.71105        2.55970
C          9.29963        1.67815        3.66048
C          8.91069        3.14091        3.40381
Si         9.44792        4.42018        4.71630
C          8.74418        6.09199        4.30131
C          7.35130        6.27863        4.11738
C          6.78394        7.50829        3.82076
C          7.57447        8.69341        3.68176
C          8.98113        8.49536        3.85356
C          9.53119        7.25364        4.15480
C          7.06463       10.01171        3.40284
S          5.43711       10.31596        3.11192
O          4.50511        9.41209        3.77019
O          5.13859       11.74189        3.08362
F          5.16685        9.90181        1.47668
C          7.99062       11.18447        3.14612
C          8.64315       11.20643        1.74981
C          8.82850        3.81782        6.41068
C         11.34537        4.47354        4.77270
H          8.67980       -6.28466        0.42381
H          8.53871       -5.94708        2.16146
H         10.09912       -5.74363        1.34373
H          7.57404       -4.05600        0.78009
H          9.12213       -3.85381       -0.03395
H         10.20483       -3.27383        2.16127
H          8.65911       -3.48448        2.98097
H          7.66861       -1.62828        1.59732
H          9.21125       -1.41643        0.77264
H         10.30737       -0.83316        2.96022
H          8.77236       -1.06256        3.79520
H          7.75071        0.79588        2.43597
H          9.28194        1.02801        1.59633
H         10.39538        1.59384        3.77332
H          8.87425        1.34248        4.62252
H          7.81466        3.22012        3.29473
H          9.32267        3.47655        2.43581
H          6.67385        5.42197        4.20945
H          5.70521        7.57871        3.70055
H          9.65947        9.34212        3.74623
H         10.61782        7.19254        4.27355
H          8.78000       11.18565        3.91844
H          7.42842       12.11618        3.29020
H          9.20329       10.28075        1.55361
H          9.33875       12.05589        1.64574
H          7.87212       11.29752        0.97196
H          7.72943        3.77549        6.42913
H          9.14059        4.51850        7.19859
H          9.21228        2.81930        6.66972
H         11.76540        4.78187        3.80440
H         11.76189        3.48686        5.02401
H         11.69835        5.18608        5.53219
