24

C          4.62566       -2.02186       -2.30843
O          4.38537       -1.03482       -1.32759
C          4.94686       -1.38657       -0.06217
C          4.66085       -0.25642        0.93485
O          5.05463       -0.59058        2.25085
C          6.46186       -0.38003        2.50414
C          6.78877       -0.78093        3.92882
Ta         6.37516        0.24630        5.81864
Br         7.24831        2.39059        4.54272
Cl         4.74178        1.48634        6.96864
H          4.14950       -1.68552       -3.23964
H          4.19543       -3.00113       -2.01956
H          5.70928       -2.16383       -2.49077
H          6.03585       -1.55495       -0.16859
H          4.49424       -2.32568        0.31226
H          3.57330       -0.08055        0.95894
H          5.14594        0.67732        0.58982
H          6.70334        0.68701        2.33844
H          7.04757       -0.97999        1.77530
H          7.89516       -0.68909        4.05072
H          6.53519       -1.84143        4.09134
H          6.82951       -1.24121        6.67054
H          5.12306       -1.00712        5.90776
H          7.86402        0.38300        6.76278
