29

C          0.90208        0.23052        0.22570
C          2.42839        0.19280        0.10676
C          2.93969       -0.81955       -0.92364
C          4.46784       -0.89768       -1.01679
C          4.99397       -1.92830       -2.03063
C          6.52056       -2.06244       -2.09709
Al         7.26414       -3.29531       -3.53767
C          6.87852       -5.26782       -3.22898
C          5.41092       -5.69277       -3.41352
F          8.99098       -3.08125       -3.55400
H          0.56598        0.96453        0.97367
H          0.50524       -0.75286        0.52163
H          0.43507        0.49504       -0.73538
H          2.86739       -0.04381        1.09131
H          2.80296        1.19728       -0.15547
H          2.52328       -0.56993       -1.91644
H          2.54093       -1.81997       -0.67483
H          4.88027       -1.13691       -0.01944
H          4.87183        0.09778       -1.27733
H          4.59838       -1.66686       -3.03031
H          4.54178       -2.90814       -1.78718
H          6.90181       -2.37278       -1.10418
H          6.96156       -1.06212       -2.27936
H          6.64014       -2.84433       -5.00470
H          7.22781       -5.57255       -2.22417
H          7.51175       -5.83408       -3.93857
H          4.75522       -5.21959       -2.66316
H          5.23955       -6.78480       -3.33623
H          5.02619       -5.37890       -4.39878
