42

C          3.15909        3.72035        1.12286
C          2.63634        2.59982        0.22013
C          3.11142        1.19561        0.61214
Ga         2.41487        0.45345        2.39458
C          3.64185        1.15505        3.97360
C          3.60173        0.37352        5.30244
F          2.33590        0.34435        5.80474
F          4.00706       -0.90863        5.13710
F          4.39409        0.90882        6.28545
F          4.99818        1.16338        3.60992
F          3.36630        2.48573        4.35330
C          0.46572        0.85291        2.85137
C          0.09699        2.28363        3.25513
C         -1.39232        2.51430        3.57555
C         -1.87408        1.76290        4.81608
N         -3.28211        2.05154        5.07301
C         -3.96024        1.50951        6.14700
N         -3.55430        0.61716        6.98596
N         -5.25787        2.04548        6.29174
C          2.76001        0.18573       -0.48913
H          2.81779        4.71046        0.78111
H          4.26020        3.72973        1.13285
H          2.83292        3.58791        2.16341
H          2.94422        2.82033       -0.82539
H          1.53062        2.62621        0.20610
H          4.21292        1.22535        0.70672
H          2.63834       -1.13749        2.39385
H          0.20570        0.14449        3.65544
H         -0.13691        0.54926        1.97494
H          0.37276        2.98183        2.44805
H          0.69588        2.59491        4.12795
H         -2.00803        2.20599        2.71266
H         -1.57462        3.59557        3.73102
H         -1.24381        2.04042        5.68359
H         -1.75885        0.67878        4.66557
H         -3.57790        2.98784        4.81021
H         -2.56220        0.40779        6.84770
H         -5.76895        2.09834        5.41283
H         -5.77206        1.50494        6.98337
H          1.66709        0.08545       -0.61059
H          3.14550       -0.81779       -0.25672
H          3.16214        0.48583       -1.47837
