29

C          1.73222        1.01551        1.45427
Sb         2.56020       -0.47231        0.02631
C          4.56619       -0.35051        1.33903
F          4.32311       -0.42945        2.70530
F          5.50725       -1.33938        1.10175
F          5.26329        0.83962        1.17895
C          3.63487       -1.97178       -1.30424
C          3.58340       -3.34082       -1.03289
C          4.25406       -4.26077       -1.85081
C          4.99175       -3.82047       -2.95582
C          5.04907       -2.45084       -3.22603
C          4.37629       -1.53554       -2.40148
C          5.88675       -1.96055       -4.37409
F          6.00741       -2.88673       -5.37483
F          5.38288       -0.83275       -4.94863
F          7.16653       -1.65394       -3.99172
C          4.15872       -5.73860       -1.59242
F          3.78478       -6.03530       -0.32065
F          3.24107       -6.34943       -2.41409
F          5.34254       -6.38959       -1.81694
H          2.42474        1.86483        1.50957
H          1.64282        0.54523        2.44124
H          0.74901        1.34986        1.09917
H          3.26852        0.79185       -1.02652
H          1.06998       -0.59081       -0.95098
H          2.11307       -1.87492        1.04940
H          3.02211       -3.69271       -0.16037
H          5.51464       -4.53325       -3.59244
H          4.43415       -0.46174       -2.61404
