9

N          0.85157       -0.00990       -0.06044
C          0.46587       -1.21668        0.60087
C         -1.07356       -1.22001        0.60304
Br         2.82447        0.01910       -0.07625
H          0.80401       -1.32150        1.67381
H          0.80372       -2.17717        0.11100
H         -1.45356       -0.33193        1.13167
H         -1.46600       -2.12520        1.09530
H         -1.45304       -1.18190       -0.43002
