34

O          1.87075       -1.06734       -1.64625
Ga         1.98310       -0.30778        0.06825
C          3.32367       -1.48845        1.00855
C          3.83278       -2.63657        0.36955
C          4.76413       -3.47613        0.98351
C          5.21753       -3.18434        2.28111
C          4.72106       -2.05365        2.94742
C          3.78947       -1.23023        2.31079
C          6.22312       -4.07863        2.93970
C          7.71671       -3.98142        2.43976
C          8.48818       -2.60893        2.51798
C          8.83423       -1.93232        3.90937
C          9.67160       -2.75332        4.96105
C         10.33245       -1.86949        6.08751
F          9.43281       -1.04629        6.65665
F         10.82210       -2.69032        7.04272
F         11.35251       -1.13678        5.60664
F          8.86500       -3.64616        5.58224
F         10.68459       -3.41995        4.34724
F          9.56634       -0.82142        3.59197
F          7.69052       -1.52252        4.50588
F          9.68178       -2.80620        1.88033
F          7.79317       -1.67636        1.82441
F          8.47591       -4.90188        3.11302
F          7.73708       -4.32353        1.12000
F          6.26763       -3.89465        4.30537
F          5.91011       -5.41447        2.73781
F          2.74952        1.37414       -0.05990
H          1.13978       -0.65744       -2.12914
H          0.56163       -0.10635        0.76053
H          3.48516       -2.87213       -0.63992
H          5.13469       -4.36223        0.46488
H          5.05814       -1.82630        3.95941
H          3.41848       -0.35506        2.85218
