19

N          1.99803        0.53887        0.33003
C          2.81333       -0.62901        0.01702
C          2.36859       -1.87053        0.47847
F          1.02733       -2.50025       -0.23206
F          3.20075       -2.94906        0.29444
F          1.89663       -1.91905        1.77557
C          3.49139       -0.56997       -1.32288
C          4.68243        0.41077       -1.37176
C          5.23303        0.56196       -2.78643
S          6.74776        1.59369       -2.96256
H          2.03690        0.75163        1.32600
H          1.00514        0.37190        0.11433
H          2.77492       -0.26719       -2.12570
H          3.84781       -1.57538       -1.59960
H          5.47129        0.06116       -0.68837
H          4.34194        1.39004       -0.99457
H          4.46599        0.95501       -3.46892
H          5.55119       -0.41375       -3.18734
H          6.26336        2.69576       -2.34219
