36

C          1.00777        0.48540        0.04271
B          2.43292       -0.29892       -0.25268
C          3.26442       -0.48917        1.12196
C          4.38207        0.30829        1.46246
C          5.06913        0.17325        2.66996
C          4.67859       -0.78153        3.63453
C          3.57152       -1.59451        3.30922
C          2.89710       -1.44627        2.09695
Si         5.63706       -0.95366        5.21782
C          7.44360       -1.44146        4.82322
C          7.53495       -2.65097        3.88646
C          8.94731       -3.10779        3.60270
F          9.71598       -2.13863        3.02788
F          9.61031       -3.50136        4.73634
F          8.97741       -4.18042        2.75473
C          5.71965        0.67512        6.18187
C          4.91024       -2.29431        6.34371
H          0.41788        0.61200       -0.88263
H          1.16283        1.49655        0.46383
H          0.36225       -0.05668        0.75946
H          3.11954        0.34747       -1.06030
H          2.19476       -1.42228       -0.72935
H          4.71851        1.05638        0.73773
H          5.92943        0.82515        2.86714
H          3.23118       -2.35869        4.01628
H          2.04684       -2.10182        1.88149
H          7.97663       -1.63976        5.76735
H          7.93678       -0.57420        4.35642
H          7.06237       -2.42738        2.91819
H          7.00979       -3.52595        4.29960
H          6.12514        1.47659        5.54786
H          6.35560        0.58976        7.07578
H          4.71369        0.98282        6.50026
H          4.89621       -3.27778        5.85315
H          3.87556       -2.05061        6.62350
H          5.50027       -2.38341        7.26767
