14

O          0.96963        0.09259        0.02031
C          2.33825       -0.13654       -0.00091
O          2.73016       -1.27520       -0.11110
C          3.16539        1.12095        0.12237
C          4.67502        0.94485        0.10506
S          5.46619        2.59285        0.26838
O          4.95824        3.34418       -0.90103
O          4.96170        3.09902        1.56406
O          6.91186        2.31641        0.23863
H          0.83366        1.05207        0.11303
H          2.88040        1.63996        1.05580
H          2.88047        1.81134       -0.69253
H          5.02558        0.50387       -0.83703
H          5.02586        0.32675        0.94148
