47

O          5.17559       -7.79103       -8.36337
N          4.86464       -7.54042       -6.94282
C          4.95099       -6.23940       -6.69442
C          4.67791       -5.80222       -5.34248
C          4.74121       -4.47502       -4.98175
C          5.07371       -3.43442       -5.90525
C          5.34135       -3.86646       -7.23531
C          5.28987       -5.19020       -7.63220
Si         5.19662       -1.67327       -5.41219
C          7.01313       -1.03652       -5.54731
C          7.22368        0.41176       -5.08805
C          8.65782        0.88758       -4.93444
C          9.57757        1.01022       -6.20190
C          9.10428        1.87926       -7.42741
C          8.84873        3.43540       -7.28733
C         10.03037        4.35220       -6.79581
C          9.81619        5.88788       -7.07910
F          8.61821        6.30474       -6.62746
F         10.77897        6.57906       -6.43284
F          9.90979        6.16909       -8.39058
F         10.18681        4.21732       -5.45857
F         11.18680        3.99727       -7.41705
F          8.50695        3.85661       -8.54262
F          7.77955        3.63574       -6.47608
F         10.04162        1.72071       -8.40497
F          7.93144        1.36403       -7.89050
F         10.79420        1.50323       -5.81406
F          9.78271       -0.23661       -6.70851
F          8.67229        2.13812       -4.33274
F          9.35320        0.05595       -4.08479
C          4.16158       -0.50447       -6.50748
C          4.65419       -1.41378       -3.60677
H          5.07130       -8.75267       -8.37112
H          4.41604       -6.56668       -4.60666
H          4.52254       -4.21716       -3.93976
H          5.60341       -3.11999       -7.99671
H          5.50356       -5.46550       -8.66389
H          7.33528       -1.17176       -6.59082
H          7.63167       -1.71782       -4.94361
H          6.80451        0.55730       -4.07847
H          6.70081        1.12306       -5.74275
H          4.42260       -0.63732       -7.56802
H          4.29707        0.55972       -6.25575
H          3.09315       -0.74265       -6.40375
H          5.30185       -1.96484       -2.90941
H          3.62698       -1.77857       -3.46300
H          4.67075       -0.35202       -3.31791
