17

C          1.16053       -0.02816       -0.28573
Ga         2.92864       -0.09839        0.64166
S          4.08484        1.90484       -0.12189
O          5.46317        2.06487        0.40704
O          3.89929        2.13883       -1.57817
C          3.13191        3.25821        0.67815
C          4.04990       -1.68277       -0.06859
F          3.48788       -2.89968        0.33454
F          4.11533       -1.77841       -1.44502
F          5.35779       -1.75171        0.35697
H          0.52489        0.76867        0.12568
H          0.63066       -0.98525       -0.17025
H          1.31127        0.16230       -1.35659
H          3.00560       -0.01048        2.21963
H          3.19843        3.14402        1.76703
H          2.09029        3.21062        0.33651
H          3.60708        4.19271        0.35123
