81

O          2.31682        1.38893       -1.05191
C          2.35723        0.36622       -0.35059
O          1.87689        0.06546        0.75028
C          3.36066       -0.84932       -1.03900
C          3.19682       -2.16463       -0.26215
F          1.91272       -2.59885       -0.17057
F          3.89066       -3.21628       -0.85607
F          3.68707       -2.09566        0.99857
C          2.98919       -0.96200       -2.49696
C          3.34902        0.10125       -3.35351
C          2.95825        0.11997       -4.68718
C          2.19082       -0.92039       -5.25175
C          1.84401       -1.98267       -4.39778
C          2.23048       -2.00634       -3.05634
Si         1.53580       -0.79781       -6.99793
C         -0.02412        0.30078       -6.98940
C         -1.05602       -0.12720       -5.93870
C         -2.34670        0.66032       -5.98897
F         -2.15929        1.99767       -5.81212
F         -2.99845        0.51679       -7.18666
F         -3.22484        0.25526       -5.02605
C          2.78735        0.00770       -8.16322
C          1.06100       -2.49890       -7.67830
C          4.81234       -0.39690       -0.84687
C          5.84208       -0.94417       -1.62976
C          7.17384       -0.58312       -1.42698
C          7.53494        0.35189       -0.43918
C          6.49371        0.90699        0.33095
C          5.16287        0.53951        0.13761
Si         9.32525        0.75198       -0.06110
C          9.88771       -0.30348        1.42787
C          9.00371       -0.12062        2.66631
C          9.47506       -0.77143        3.96547
C          9.00123       -2.23748        4.29494
C          9.38218       -3.45852        3.37174
C         10.88406       -3.88255        3.12424
C         11.83692       -4.29340        4.31881
C         11.42245       -5.48468        5.26041
F         11.08646       -6.57519        4.54769
F         12.48524       -5.79305        6.03553
F         10.40182       -5.15299        6.06398
F         13.00820       -4.66550        3.72604
F         12.08102       -3.21435        5.09881
F         10.82414       -4.95244        2.28220
F         11.52293       -2.87656        2.47388
F          8.75636       -4.54935        3.89966
F          8.85528       -3.23434        2.13867
F          9.42422       -2.54511        5.55578
F          7.63845       -2.22346        4.30285
F         10.84372       -0.73547        4.09657
F          8.97271       -0.04128        5.02690
C         10.45827        0.31798       -1.50841
C          9.54019        2.57856        0.37682
H          3.91927        0.93366       -2.94662
H          3.25334        0.97777       -5.29813
H          1.25492       -2.82248       -4.77634
H          1.92253       -2.85182       -2.44507
H         -0.47062        0.28921       -7.99718
H          0.29306        1.33729       -6.79378
H         -0.64923       -0.01670       -4.92254
H         -1.34164       -1.18435       -6.05238
H          3.06988        1.01055       -7.81374
H          2.37120        0.10930       -9.17621
H          3.70385       -0.59520       -8.22721
H          0.27476       -2.98120       -7.08053
H          1.93052       -3.17103       -7.68510
H          0.68918       -2.40886       -8.70935
H          5.59208       -1.66613       -2.40811
H          7.94059       -1.04335       -2.05550
H          6.71592        1.65041        1.10166
H          4.38091        0.98002        0.75622
H         10.93128       -0.04101        1.66228
H          9.89109       -1.34845        1.09087
H          7.97377       -0.45525        2.47434
H          8.93155        0.94702        2.92663
H         10.42211       -0.75538       -1.74173
H         11.50127        0.57493       -1.27361
H         10.16583        0.86961       -2.41266
H          8.89859        2.88434        1.21485
H          9.27652        3.20970       -0.48331
H         10.58254        2.79327        0.65406
