33

F          3.47552        2.21989       -0.42894
In         2.94179        0.28496       -0.03257
C          4.18214       -0.80659       -1.50044
C          4.74056       -0.11331       -2.59170
C          5.44658       -0.77883       -3.59899
C          5.63137       -2.17709       -3.56245
C          5.10712       -2.86655       -2.45071
C          4.40383       -2.19339       -1.44539
Si         6.45525       -3.07698       -4.98353
C          8.31879       -2.65682       -5.07871
C          9.04899       -3.36701       -6.22531
C         10.50890       -2.99422       -6.36785
F         11.23467       -3.26405       -5.24683
F         11.10346       -3.68703       -7.39064
F         10.68742       -1.67126       -6.64326
C          6.27894       -4.95321       -4.78912
C          5.66305       -2.55032       -6.62359
Br         3.85792       -0.34420        2.34691
H          1.19455        0.19547        0.02593
H          4.61368        0.97152       -2.65294
H          5.84761       -0.19574       -4.43587
H          5.23754       -3.95031       -2.37110
H          4.01982       -2.77229       -0.59984
H          8.78397       -2.91583       -4.11520
H          8.41751       -1.56507       -5.18649
H          8.58480       -3.14479       -7.19829
H          9.02393       -4.46003       -6.09935
H          6.79427       -5.31760       -3.88884
H          6.69652       -5.48672       -5.65553
H          5.22030       -5.23637       -4.70432
H          5.76914       -1.46728       -6.78115
H          4.58723       -2.77492       -6.61181
H          6.10505       -3.06387       -7.49016
