31

C          0.70395        0.04023       -0.44374
C          2.15806        0.43946       -0.17869
C          2.64098        0.07872        1.22979
C          4.08917        0.48551        1.51536
C          4.57617        0.10828        2.91700
C          6.03746        0.52169        3.19071
C          6.55161        0.10653        4.54344
S          7.04796        1.26036        5.60148
O          6.38294        2.55626        5.39045
O          7.24988        0.74912        6.96602
C          8.85974        1.81458        5.23412
F          9.73343        0.76190        5.32935
F          8.98383        2.29203        3.95441
F          9.34972        2.79369        6.05577
C          6.91969       -1.33256        4.78420
H          0.38505        0.30335       -1.46331
H          0.02175        0.54228        0.25951
H          0.56205       -1.04440       -0.31879
H          2.27676        1.52546       -0.33462
H          2.81523       -0.04532       -0.92124
H          2.53154       -1.01025        1.38173
H          1.97657        0.55362        1.97350
H          4.19337        1.57692        1.37804
H          4.75177        0.02330        0.76095
H          4.46609       -0.98173        3.05810
H          3.93649        0.58479        3.67818
H          6.10884        1.61541        3.08736
H          6.66961        0.08670        2.38304
H          7.68447       -1.70680        4.06873
H          6.04610       -2.00508        4.68453
H          7.31374       -1.46953        5.79946
