30

N          4.06895       -0.05259        1.72810
C          4.72871        1.13653        1.57742
O          4.85222        1.92606        2.51712
C          5.30103        1.41272        0.18988
C          5.06318        0.36409       -0.90645
B          5.69270        0.76287       -2.35174
S          4.79507       -0.30431       -3.72983
O          5.54523       -0.43949       -4.98057
O          4.11283       -1.49091       -3.19200
C          3.31503        0.87924       -4.22442
C          2.16708        0.16618       -5.00826
C          1.16159        1.12106       -5.75079
F          0.66410        2.05731       -4.91563
F          1.73805        1.74255       -6.79676
F          0.12042        0.39381       -6.22725
F          2.68697       -0.65506       -5.95902
F          1.42390       -0.57569       -4.14280
F          2.77082        1.43216       -3.09882
F          3.80151        1.89587       -4.99408
C          7.29297        0.47982       -2.47348
F          7.66094       -0.84439       -2.31965
F          7.88840        0.89026       -3.63534
F          7.98614        1.14955       -1.46803
H          3.65848       -0.26575        2.62801
H          3.94257       -0.68457        0.94706
H          6.37600        1.59321        0.34097
H          4.88957        2.38834       -0.11591
H          3.97805        0.21452       -1.02996
H          5.47434       -0.61163       -0.59280
H          5.47549        1.90585       -2.70514
