29

C          2.50541       -0.24197       -0.07516
C          1.00168       -0.11482       -0.06485
C          0.37278        1.12787       -0.19501
C         -1.02127        1.23818       -0.19379
C         -1.83845        0.10644       -0.05228
C         -1.20563       -1.14646        0.08286
C          0.18195       -1.24743        0.07623
C         -3.35435        0.21110        0.00105
S         -3.93948       -0.47898       -1.64941
O         -4.10659        0.63926       -2.57884
O         -3.19709       -1.64929       -2.09024
C         -5.75488       -1.11488       -1.41474
F         -6.39871       -0.48869       -0.40944
F         -6.41383       -0.81706       -2.56867
F         -5.82788       -2.43569       -1.24578
C         -3.89910       -0.71205        1.22735
O         -4.00798       -0.08713        2.29844
O         -4.09730       -1.91044        0.92791
C         -3.89264        1.63696        0.10687
H          2.98810        0.73894       -0.18661
H          2.84903       -0.88145       -0.90344
H          2.87852       -0.69630        0.85618
H          0.98150        2.03007       -0.30246
H         -1.47074        2.22538       -0.29725
H         -1.82986       -2.03161        0.20608
H          0.64382       -2.23255        0.18723
H         -3.56279        2.28232       -0.71683
H         -3.55798        2.03422        1.07318
H         -4.98906        1.63073        0.12259
