21

C          0.94250        0.42345        0.17444
C          2.35567       -0.12542       -0.05192
C          2.90105       -1.03472        1.07907
C          2.54639       -2.53284        0.87726
C          3.03841       -3.39293        2.10411
O          2.19168       -3.50183        3.04127
O          4.20363       -3.86862        2.03667
N          1.08323       -2.69841        0.67057
C          4.41850       -0.84468        1.22909
H          0.62206        1.06890       -0.65987
H          0.89990        1.02628        1.09596
H          0.23241       -0.40679        0.27488
H          3.04969        0.72422       -0.18588
H          2.37970       -0.69085       -1.00017
H          2.42543       -0.72374        2.02874
H          3.07557       -2.88411       -0.02639
H          0.75097       -2.86937        1.63495
H          0.95099       -3.60461        0.21362
H          4.93416       -1.07313        0.28148
H          4.83166       -1.52172        1.98728
H          4.65489        0.19791        1.49794
