9

O          1.28468       -0.16526       -0.54458
Al         3.00797        0.14916       -0.39011
C          4.01546       -1.65661       -0.17920
F          3.52395       -2.49504        0.81896
F          3.95381       -2.44224       -1.33393
F          5.37590       -1.57011        0.08962
Br         3.44908        1.33383        1.64405
H          0.84491       -0.48347        0.25321
H          3.59108        0.94591       -1.66012
