60

C          8.59014       -2.05832       -5.54231
C          8.23185       -1.59109       -4.12984
C          8.75526       -2.52320       -3.03295
C          8.40594       -2.06400       -1.61480
C          8.92766       -2.99341       -0.51449
C          8.57606       -2.51973        0.89842
C          9.08492       -3.43385        2.02070
C          8.71435       -2.92529        3.42071
Si         9.26672       -3.94559        4.93274
C          8.61072       -3.06970        6.45705
C          7.22685       -2.83808        6.59946
C          6.72033       -2.08898        7.66680
C          7.55547       -1.53064        8.65493
C          8.93287       -1.79316        8.52390
C          9.45020       -2.53542        7.45498
In         6.75962       -0.30273       10.35215
C          5.28256       -1.44638       11.63224
C          5.17285       -2.94144       11.29304
C          6.43078       -3.77624       11.56430
C          5.52085       -1.20708       13.12678
Cl         8.83478       -0.04708       11.75206
C          8.57176       -5.70537        4.77995
C         11.15828       -4.05703        4.96681
H          8.20163       -1.37227       -6.30846
H          8.17517       -3.05676       -5.74742
H          9.68085       -2.12228       -5.67432
H          7.13610       -1.50235       -4.03701
H          8.63165       -0.57635       -3.96389
H          9.85212       -2.61405       -3.12749
H          8.35341       -3.53888       -3.19786
H          7.30927       -1.97183       -1.52196
H          8.80755       -1.04814       -1.45218
H         10.02436       -3.08771       -0.60707
H          8.52235       -4.00878       -0.67257
H          7.47967       -2.42147        0.98783
H          8.98083       -1.50411        1.05387
H         10.18134       -3.53239        1.93157
H          8.67846       -4.44904        1.86672
H          7.61808       -2.81295        3.49470
H          9.11546       -1.90662        3.56545
H          6.52639       -3.24030        5.85755
H          5.63636       -1.93517        7.71610
H          9.62001       -1.40068        9.28061
H         10.53229       -2.69390        7.39623
H          6.25455        1.33560        9.90919
H          4.31693       -0.98149       11.36325
H          4.89768       -3.06004       10.23109
H          4.33465       -3.38854       11.87336
H          7.28924       -3.39645       10.99179
H          6.27482       -4.82971       11.28350
H          6.70787       -3.75537       12.62855
H          6.53030       -1.51077       13.44144
H          4.79467       -1.76721       13.75400
H          5.42621       -0.14182       13.38509
H          7.47230       -5.70148        4.79066
H          8.90747       -6.32515        5.62386
H          8.90056       -6.19357        3.85000
H         11.61816       -3.06093        5.03617
H         11.54043       -4.54297        4.05686
H         11.50494       -4.64517        5.82875
