40

N          1.24095        2.94796       -0.77192
C          2.59579        2.43086       -0.49432
C          3.42919        2.35624       -1.77127
C          4.85961        1.84546       -1.53328
C          5.70681        1.72193       -2.80581
Ta         7.62034        0.68129       -2.63229
C          8.68385        0.17351       -0.67024
C          9.46532       -1.15463       -0.40919
C         10.69981       -1.38337       -1.33664
F         10.32440       -1.48612       -2.63252
F         11.61053       -0.39818       -1.23522
F         11.32069       -2.54924       -1.00592
F          9.95239       -1.21552        0.88392
F          8.66235       -2.24948       -0.56621
F          9.52039        1.13290       -0.09370
F          7.58219        0.08305        0.22844
C          8.23788        0.44614       -4.73206
C          7.20114       -0.18479       -5.68498
C          6.34052        0.76392       -6.51577
O          5.59766        0.36258       -7.41478
N          6.46682        2.09393       -6.22209
H          0.67480        2.92412        0.07810
H          0.77464        2.32888       -1.43876
H          2.59347        1.43279       -0.01146
H          3.07719        3.12241        0.21670
H          3.45974        3.35400       -2.24018
H          2.92158        1.69066       -2.49411
H          4.80215        0.86794       -1.02179
H          5.37539        2.51776       -0.82908
H          5.81947        2.71763       -3.27558
H          5.16385        1.09123       -3.55128
H          7.21205       -1.02806       -2.21908
H          7.78820        2.07744       -1.56994
H          9.23953        1.38981       -2.73030
H          8.97400       -0.33944       -4.44790
H          8.84458        1.20201       -5.25169
H          6.48297       -0.82811       -5.14264
H          7.66273       -0.86377       -6.42337
H          6.93356        2.36906       -5.36384
H          5.79102        2.72630       -6.63386
