44

F          1.47831       -2.25854        8.12788
C          2.81339       -2.29019        7.84928
C          3.10404       -2.47175        6.37827
C          2.52260       -1.37416        5.48192
Si         2.91034       -1.64526        3.61980
C          2.47838       -3.36247        3.08772
C          1.13567       -3.75435        2.82710
C          0.79050       -5.05492        2.50802
C          1.76129       -6.11196        2.41227
C          3.11750       -5.70939        2.67878
C          3.44207       -4.40090        3.00644
N          1.32099       -7.36143        2.17617
C          2.11651       -8.39010        1.75715
C          1.76713       -9.72045        2.13148
C          2.47332      -10.82889        1.67287
C          3.56939      -10.70512        0.80177
C          3.91391       -9.40072        0.40350
C          3.22532       -8.28015        0.86073
C          4.34473      -11.90939        0.32596
C          1.90949       -0.31721        2.70477
C          4.75851       -1.27819        3.37951
F          3.33853       -1.12842        8.35185
F          3.34165       -3.30189        8.60468
H          2.71046       -3.45740        6.08783
H          4.19983       -2.52922        6.28911
H          2.89506       -0.38480        5.79526
H          1.42699       -1.35193        5.59656
H          0.33554       -3.00667        2.87618
H         -0.25201       -5.32483        2.32299
H          3.90496       -6.46401        2.65329
H          4.49463       -4.17275        3.21020
H          0.90953       -9.84471        2.79634
H          2.16512      -11.82833        1.99911
H          4.74704       -9.25952       -0.29455
H          3.51438       -7.29067        0.50275
H          3.84681      -12.84291        0.62728
H          5.36842      -11.93825        0.73886
H          4.44676      -11.92941       -0.77204
H          0.82920       -0.49505        2.80846
H          2.14350       -0.32332        1.63068
H          2.12321        0.68852        3.09771
H          5.39562       -1.97784        3.93978
H          5.00281       -0.25975        3.71735
H          5.03552       -1.36204        2.31905
