31

N          1.05607       -0.10376       -0.66606
C          2.16619       -0.31117        0.28692
C          2.90059        0.99745        0.58299
C          4.08608        0.83463        1.53964
Ga         5.15454        2.52749        1.78361
S          3.86647        3.75762        3.54620
O          4.53152        4.94138        4.10105
O          2.41879        3.85363        3.33540
F          3.97460        2.62853        4.85249
C          7.04744        2.58887        2.51509
C          7.32521        1.79189        3.79827
C          7.12563        0.27524        3.68818
C          8.03652        2.25895        1.38593
H          0.65817       -1.00107       -0.94827
H          1.42402        0.32520       -1.51824
H          2.90801       -1.05883       -0.06382
H          1.73661       -0.70727        1.22182
H          2.18159        1.72733        0.98717
H          3.25316        1.42207       -0.37589
H          4.77777        0.06153        1.15765
H          3.74015        0.48446        2.52541
H          4.95316        3.57359        0.59104
H          7.17089        3.65651        2.76440
H          6.67785        2.17434        4.60208
H          8.36965        1.98150        4.12516
H          6.08524        0.03222        3.42957
H          7.35822       -0.22515        4.64053
H          7.77316       -0.16930        2.91674
H          7.92504        1.22747        1.01345
H          9.08899        2.36496        1.71668
H          7.89444        2.92651        0.52252
