36

C          0.86199        0.57282        0.31109
C          2.38620        0.46863        0.40988
C          2.86049       -0.71349        1.26042
C          4.38313       -0.83950        1.36630
C          4.84557       -2.02738        2.21731
C          6.36879       -2.18593        2.30511
B          6.92143       -3.46869        3.14211
S          6.68144       -3.14753        5.05441
O          5.36273       -2.65182        5.44005
O          7.28798       -4.15762        5.91944
F          7.67830       -1.79357        5.31311
C          8.49446       -3.81825        2.87377
C          8.96218       -5.21234        3.31430
C         10.38691       -5.63298        2.98355
O         10.77918       -6.80201        3.04156
N         11.23868       -4.62021        2.62576
H          0.54695        1.42445       -0.31002
H          0.40959        0.69998        1.30640
H          0.43108       -0.33941       -0.12900
H          2.79342        1.40394        0.83097
H          2.81638        0.38173       -0.60288
H          2.44768       -1.64888        0.84061
H          2.43286       -0.62653        2.27507
H          4.79728        0.09327        1.79080
H          4.81249       -0.92482        0.35034
H          4.41311       -2.95614        1.80282
H          4.43026       -1.93075        3.23321
H          6.81167       -1.24550        2.68351
H          6.76525       -2.29641        1.27570
H          6.20073       -4.45677        3.02500
H          9.12537       -3.03620        3.33781
H          8.63834       -3.72102        1.78093
H          8.30994       -5.98981        2.88756
H          8.85073       -5.31555        4.40657
H         10.90488       -3.66798        2.54351
H         12.19851       -4.84979        2.40309
