22

C          1.44436       -0.17522        0.81055
N          2.62799       -0.12303       -0.00820
C          3.22415        1.06171       -0.09378
C          4.41885        1.18123       -0.90163
C          5.09938        2.37648       -1.04622
C          4.67360        3.57008       -0.41341
C          3.52117        3.48242        0.37634
C          2.81022        2.29273        0.54669
C          2.99601        4.71264        1.05626
F          3.81286        5.80254        0.93171
F          1.77129        5.11068        0.57016
F          2.80504        4.54087        2.40594
C          6.34057        2.44311       -1.88127
F          6.65193        1.27632       -2.51382
F          6.26641        3.39932       -2.86961
F          7.45786        2.78134       -1.14797
H          1.03408       -1.19847        0.80173
H          0.62678        0.50404        0.46840
H          1.62294        0.09199        1.88003
H          4.76981        0.27722       -1.39968
H          5.21419        4.50474       -0.53549
H          1.92238        2.29617        1.17846
