65

C          8.79770        5.57020        1.50916
C          8.24615        4.17891        1.18796
C          8.86594        3.06808        2.04168
C          8.33008        1.67036        1.71728
C          8.94736        0.55923        2.57199
C          8.43313       -0.84190        2.22687
C          9.05274       -1.95242        3.08399
C          8.55692       -3.36189        2.72554
Si         9.23339       -4.76710        3.81585
C          8.72740       -4.46061        5.60486
C          7.36428       -4.36066        5.94685
C          6.94877       -4.13394        7.25803
C          7.89320       -3.98586        8.29028
C          9.25850       -4.08718        7.96446
C          9.66023       -4.32070        6.64837
C          7.42816       -3.74092        9.71578
S          8.15668       -5.16913       10.73665
O          8.03757       -6.40784        9.99221
O          9.46587       -4.76723       11.23767
C          7.09056       -5.43815       12.35875
C          8.02689       -5.73920       13.58535
F          8.86315       -6.76510       13.32470
F          8.73736       -4.67114       13.96789
F          7.24481       -6.10980       14.63937
F          6.34108       -4.37164       12.68476
F          6.31860       -6.52861       12.19436
S          8.16142       -2.11583       10.37933
O          7.68101       -1.95009       11.74429
O          9.59621       -2.02892       10.11791
C          7.38513       -0.87626        9.33835
C          5.81178       -3.80314        9.82381
O          5.40902       -4.94086       10.12832
O          5.19881       -2.76147        9.51656
C          8.48947       -6.39872        3.20849
C         11.11801       -4.85461        3.66517
H          8.33469        6.34561        0.88230
H          9.88514        5.61353        1.34514
H          8.61344        5.83715        2.56060
H          8.41514        3.95223        0.12131
H          7.15190        4.17441        1.32821
H          8.68940        3.28857        3.10915
H          9.96261        3.07769        1.90949
H          8.51055        1.45152        0.64948
H          7.23334        1.66185        1.84625
H          8.75018        0.76676        3.63809
H         10.04590        0.58107        2.45854
H          8.63085       -1.05160        1.16014
H          7.33522       -0.86826        2.34247
H          8.83915       -1.74786        4.14664
H         10.15143       -1.90746        2.98445
H          8.79710       -3.59074        1.67142
H          7.45477       -3.39311        2.79319
H          6.59572       -4.46830        5.17524
H          5.88562       -4.06490        7.48784
H         10.00667       -3.97648        8.74813
H         10.73033       -4.39637        6.43995
H          6.30153       -1.03595        9.38069
H          7.77527       -0.98704        8.32079
H          7.71052        0.07400        9.78031
H          7.39350       -6.38965        3.29528
H          8.86034       -7.24221        3.80779
H          8.74402       -6.58833        2.15501
H         11.60201       -3.92785        4.00400
H         11.41202       -5.02368        2.61865
H         11.52491       -5.68207        4.26380
