13

O          1.23796        0.01740        0.02866
C          2.49422        0.04373       -0.01716
O          3.25355        0.58501       -0.87308
C          3.21050       -0.71032        1.16704
C          4.72824       -0.64674        1.06285
C          5.53235       -1.33174        2.14244
O          5.13062       -1.94599        3.10402
O          6.91081       -1.21593        1.96984
H          2.86334       -1.75480        1.17367
H          2.86604       -0.27201        2.11614
H          5.04421        0.41052        1.01307
H          5.04253       -1.05394        0.08539
H          7.05434       -0.69757        1.15862
