31

C          6.02456       -1.15539        3.96997
O          5.69613       -0.88004        2.62605
C          6.14823        0.41433        2.22323
C          5.84136        0.61219        0.74481
O          6.20875        1.93151        0.43041
C          6.15029        2.22987       -0.97562
C          7.06411        3.41451       -1.29177
C          8.46510        2.95468       -1.61470
C          8.69127        2.60915       -3.06640
C          8.22243        3.52916       -4.25929
S          9.06752        5.12771       -4.56156
C         10.78001        4.79070       -4.05458
F          9.35525        4.11886       -1.31812
H          5.63449       -2.15475        4.20758
H          5.57037       -0.41913        4.66377
H          7.12050       -1.14835        4.13427
H          7.23757        0.51481        2.38829
H          5.64119        1.19952        2.81803
H          4.76183        0.41867        0.55783
H          6.42187       -0.11414        0.14044
H          5.09113        2.44487       -1.24484
H          6.48235        1.34038       -1.54344
H          7.10778        4.04959       -0.39356
H          6.53133        4.04948       -2.06575
H          8.15417        1.65785       -3.24947
H          9.75475        2.36313       -3.22539
H          7.17090        3.82435       -4.10552
H          8.26538        2.94347       -5.19523
H         11.32750        5.72947       -4.21764
H         11.24590        4.00167       -4.66293
H         10.80469        4.52684       -2.98914
