36

C          1.05891       -0.49206        0.38531
C          2.56782       -0.62811        0.16290
C          3.02728       -0.15662       -1.22044
C          4.54154       -0.24042       -1.44257
C          5.00277        0.27665       -2.81545
C          6.52233        0.30236       -3.03844
Al         7.07450        1.25586       -4.75085
C          6.82083        0.08452       -6.41870
C          7.10948       -1.41241       -6.23751
C          8.57060       -1.74017       -5.91395
C          5.39684        0.28091       -6.96456
S          9.22673        2.14883       -4.58353
H          0.75825       -0.83583        1.38634
H          0.49386       -1.08070       -0.35367
H          0.73795        0.55594        0.28188
H          2.86923       -1.67994        0.30754
H          3.10577       -0.05221        0.93549
H          2.70011        0.88814       -1.37219
H          2.50823       -0.74784       -1.99687
H          4.87840       -1.28525       -1.31221
H          5.05591        0.34203       -0.65664
H          4.59878        1.29703       -2.95217
H          4.51428       -0.33385       -3.59837
H          6.92370       -0.72818       -2.98717
H          7.00044        0.84857       -2.20347
H          6.18252        2.62670       -4.91484
H          7.52835        0.47032       -7.17930
H          6.81863       -1.97520       -7.15326
H          6.46686       -1.81788       -5.43342
H          9.24092       -1.35803       -6.70003
H          8.73693       -2.82578       -5.82558
H          8.88342       -1.27281       -4.96824
H          4.63561       -0.05876       -6.24019
H          5.21522       -0.28801       -7.90100
H          5.18370        1.34124       -7.16677
H          9.90720        0.98289       -4.47989
