36

C          0.87257        0.78512       -0.06714
C          2.38750        0.56317       -0.04155
C          2.93427        0.24724        1.35430
C          4.44656        0.00430        1.39267
C          4.99346       -0.31142        2.79050
C          6.50675       -0.56106        2.84490
B          7.05001       -0.96915        4.34553
C          8.67729       -0.80190        4.47350
C          9.26741        0.63145        4.59270
F          8.96523        1.40268        3.51302
F          8.79947        1.27423        5.69077
F         10.63163        0.63061        4.69264
F          9.20305       -1.45764        5.59582
F          9.37405       -1.36655        3.38297
C          6.65219       -2.52683        4.63162
O          6.58133       -2.82512        6.09868
C          6.24921       -4.04744        6.44377
F          4.99690       -4.45218        6.00830
F          7.10551       -5.03452        5.99528
F          6.22789       -4.14564        7.80358
H          0.50745        1.01196       -1.07990
H          0.58414        1.62214        0.58724
H          0.33626       -0.10769        0.28939
H          2.89839        1.45834       -0.43599
H          2.65064       -0.26047       -0.72734
H          2.41351       -0.64141        1.75461
H          2.68072        1.07658        2.03916
H          4.96940        0.89140        0.99104
H          4.69810       -0.82716        0.70915
H          4.44919       -1.18740        3.18898
H          4.74437        0.52097        3.47274
H          7.01470        0.34514        2.47341
H          6.76212       -1.35199        2.11124
H          6.53869       -0.24742        5.19851
H          7.36738       -3.24850        4.20334
H          5.65334       -2.76004        4.23039
