31

N          5.28104        0.52074        4.04016
C          4.60086       -0.77968        3.91972
C          3.70212       -0.81134        2.67533
Al         4.46893       -1.21710        0.88150
S          6.20535        0.40953        0.18081
O          6.65515        1.27799        1.29242
O          7.24690       -0.18130       -0.67666
C          5.39569        1.67032       -1.12087
C          4.24540        2.60395       -0.61577
C          4.69001        4.01359       -0.07680
C          3.59570        4.76565        0.76749
F          2.41638        4.82080        0.11258
F          3.40367        4.18354        1.95926
F          4.01173        6.03732        0.98150
F          5.78721        3.91502        0.70342
F          4.97982        4.81261       -1.14563
F          3.35855        2.84247       -1.63302
F          3.55972        1.94951        0.36975
F          6.40361        2.42994       -1.63794
F          4.88841        0.90673       -2.12694
C          5.60370       -2.94350        0.94592
F          4.83819       -3.97254        1.51331
F          6.02319       -3.45677       -0.26054
F          6.74248       -2.89451        1.73114
H          5.77297        0.74618        3.16807
H          5.99874        0.47193        4.76531
H          3.99108       -0.91128        4.83335
H          5.30064       -1.63977        3.89070
H          3.09868        0.11192        2.64753
H          2.97198       -1.63652        2.78889
H          3.47020       -1.21591       -0.37672
