25

C          0.85449        0.28093       -0.11330
C          2.38478        0.23012       -0.04031
C          3.06321        1.58477        0.18731
Ta         2.29272        2.92327        1.69770
S          0.82601        2.49958        3.67063
O          0.16813        3.68924        4.21409
O         -0.01866        1.33134        3.38239
F          1.71648        1.96422        4.99378
C          3.47714        4.75477        1.15571
F          3.27444        4.99963       -0.22617
F          3.05627        5.91225        1.76349
F          4.84807        4.73933        1.29153
C          4.59129        1.45769        0.17978
H          0.43640       -0.71159       -0.33861
H          0.51786        0.97128       -0.90259
H          0.41004        0.61386        0.83697
H          2.77988       -0.22418       -0.97247
H          2.68790       -0.44455        0.77765
H          2.75908        2.27079       -0.65426
H          2.84822        1.55920        2.63450
H          3.16162        3.46376        3.12440
H          0.57129        3.28604        1.38432
H          4.92164        0.80317        1.00000
H          5.10790        2.42102        0.29674
H          4.95234        1.01014       -0.76579
