43

C          0.61277        0.09462       -0.81747
O          1.98725        0.00602       -0.51218
C          2.79643       -0.01902       -1.68852
C          4.26145       -0.11898       -1.28866
O          5.01077       -0.14044       -2.48037
C          6.44590       -0.22384       -2.23896
C          7.22397       -0.24503       -3.51685
P          9.16007       -0.41152       -3.16951
C          9.47849       -0.45637       -5.10114
C         10.95568       -0.53226       -5.44425
C         11.26462       -0.50106       -6.94664
C         12.75621       -0.58818       -7.27189
N         12.96739       -0.56393       -8.71648
C         14.21643       -0.65617       -9.29176
N         15.37012       -0.66499       -8.70952
N         14.16105       -0.75381      -10.69721
H          0.06435        0.10848        0.13401
H          0.26794       -0.77104       -1.41761
H          0.37505        1.01823       -1.38214
H          2.63529        0.89914       -2.28679
H          2.52441       -0.88424       -2.32449
H          4.42530       -1.03648       -0.68464
H          4.53605        0.74585       -0.64811
H          6.64539       -1.13942       -1.64532
H          6.74222        0.64166       -1.61224
H          7.06665        0.68522       -4.08671
H          6.92716       -1.10739       -4.13560
H         10.62312       -0.54282       -2.89992
H          9.29246        1.09584       -3.18989
H          8.93955       -0.37364       -1.69525
H          9.01262       -1.91716       -3.15142
H          9.02814        0.45924       -5.52468
H          8.93728       -1.33186       -5.50316
H         11.38392       -1.45097       -5.00207
H         11.48172        0.30610       -4.94919
H         10.85455        0.42278       -7.38952
H         10.74188       -1.34140       -7.44107
H         13.18298       -1.50638       -6.82282
H         13.28757        0.26764       -6.82296
H         12.20610       -0.95530       -9.26389
H         15.26195       -0.71800       -7.69327
H         13.51403       -0.09341      -11.12343
H         15.09721       -0.65322      -11.08174
