23

N          0.92236        0.07915       -0.13004
C          2.40165        0.03483       -0.13733
C          2.97107        0.09862        1.27757
C          4.50890        0.05463        1.33407
C          5.11982        0.13588        2.73820
Al         7.16563        0.15706        2.81567
O          7.69164        0.26379        4.53721
C          7.91479       -1.50041        1.90981
H          0.56880        0.16180       -1.08567
H          0.62081        0.92781        0.35474
H          2.85600        0.84728       -0.74012
H          2.70291       -0.91449       -0.61120
H          2.55213       -0.73016        1.87318
H          2.62530        1.03113        1.76326
H          4.90322        0.88052        0.71193
H          4.84646       -0.87320        0.83508
H          4.73156       -0.70504        3.34834
H          4.75565        1.05539        3.23789
H          7.72796        1.51215        2.05141
H          7.25205       -0.36593        5.12257
H          7.56702       -2.44244        2.37100
H          9.01789       -1.51328        1.95238
H          7.63942       -1.54972        0.84066
