25

O          0.96181       -0.38652       -0.00201
C          2.23884        0.03786        0.35376
O          2.43061        1.21236        0.53467
C          3.23511       -1.11554        0.43457
N          4.50791       -0.74760        0.93464
C          5.40686       -1.72963        0.99231
C          6.72360       -1.42366        1.49502
C          7.71463       -2.38216        1.59279
C          7.50365       -3.72643        1.20620
C          6.23700       -4.04785        0.71202
C          5.21295       -3.10501        0.59922
C          5.93414       -5.46929        0.33940
F          7.05124       -6.23071        0.13998
F          5.20626       -6.12798        1.30523
F          5.19202       -5.57836       -0.80755
C          9.07617       -2.00897        2.09595
F         10.04443       -2.10954        1.12199
F          9.16094       -0.73760        2.57540
F          9.50655       -2.82881        3.11243
H          0.99147       -1.35820       -0.07621
H          3.25888       -1.54378       -0.60499
H          2.72471       -1.91807        1.03594
H          6.90885       -0.39450        1.80062
H          8.28997       -4.47201        1.28703
H          4.25120       -3.42700        0.20219
