30

C          0.65991        0.07467       -0.28162
C          2.12000        0.54262       -0.32469
C          3.00652       -0.26964       -1.27845
B          4.55758        0.23494       -1.48742
C          5.48623        0.15399       -0.13441
C          5.69324       -1.19804        0.60319
F          6.22574       -2.14257       -0.21745
F          6.53626       -1.10260        1.67800
F          4.52160       -1.69514        1.08173
F          6.80236        0.59095       -0.38119
F          5.02408        1.00415        0.88878
C          5.28034       -0.55362       -2.74572
C          4.76225       -0.13130       -4.13694
C          5.16343        1.29994       -4.48461
S          4.41915        1.97045       -6.02165
H          0.04280        0.68698        0.39726
H          0.59220       -0.97139        0.05841
H          0.20155        0.12027       -1.28310
H          2.53819        0.51352        0.69422
H          2.15416        1.60445       -0.62543
H          2.52089       -0.24786       -2.27451
H          2.96844       -1.33473       -0.97377
H          4.56010        1.45852       -1.68759
H          5.12434       -1.64507       -2.65434
H          6.37704       -0.41390       -2.73046
H          3.66312       -0.20774       -4.17628
H          5.14493       -0.80295       -4.93001
H          6.25651        1.40052       -4.54887
H          4.81752        1.98414       -3.69695
H          4.82737        0.97917       -6.85120
