66

C          9.71339        6.16970       -0.90936
C          9.15644        4.74930       -0.79064
C          9.56472        3.84123       -1.95459
C          9.02617        2.41250       -1.84228
C          9.42575        1.50984       -3.01339
C          8.91721        0.07178       -2.88178
C          9.29080       -0.83156       -4.06388
C          8.82428       -2.28433       -3.89244
Si         9.18552       -3.48815       -5.32377
C          8.60343       -5.19831       -4.79954
C          7.23417       -5.52888       -4.80855
C          6.78226       -6.77343       -4.35963
C          7.67605       -7.74461       -3.87226
C          9.04483       -7.42123       -3.86673
C          9.49610       -6.17744       -4.32312
In         6.92282       -9.67165       -3.14810
C          5.13486      -10.12080       -4.53878
C          4.56898      -11.54144       -4.80663
C          3.89932      -12.24295       -3.57549
C          3.61157      -13.77946       -3.74707
F          2.87272      -14.02223       -4.84970
F          4.74235      -14.49766       -3.81680
F          2.90720      -14.21201       -2.67209
F          4.69581      -12.11580       -2.47961
F          2.70077      -11.65228       -3.30899
F          3.62035      -11.51652       -5.80415
F          5.59550      -12.32999       -5.24226
F          4.04924       -9.34855       -4.08706
F          5.42770       -9.63147       -5.80687
S          8.99136      -11.27190       -3.78665
O          9.03867      -11.83122       -5.15009
O         10.21932      -10.62722       -3.26607
C          8.87284      -12.86471       -2.68973
F          8.88308      -12.55702       -1.36876
F          7.72408      -13.54138       -2.94301
F          9.91126      -13.69621       -2.93219
C          8.25756       -2.91393       -6.87319
C         11.04114       -3.50141       -5.69996
H          9.40322        6.79990       -0.06374
H          9.36591        6.65644       -1.83315
H         10.81351        6.16342       -0.93473
H          8.05555        4.78741       -0.73022
H          9.49530        4.29758        0.15706
H         10.66687        3.81061       -2.02132
H          9.21790        4.28928       -2.90285
H          7.92490        2.44203       -1.76526
H          9.38218        1.96281       -0.89854
H         10.52639        1.49906       -3.10559
H          9.04832        1.94742       -3.95482
H          7.81883        0.07854       -2.76766
H          9.31337       -0.37178       -1.95140
H         10.38616       -0.80526       -4.20002
H          8.86348       -0.40233       -4.98733
H          7.73430       -2.31003       -3.71550
H          9.27565       -2.71624       -2.98223
H          6.49853       -4.80731       -5.17905
H          5.71016       -6.98395       -4.40442
H          9.77694       -8.15417       -3.51809
H         10.57133       -5.97541       -4.30869
H          6.64239      -10.06189       -1.47503
H          7.17008       -2.90380       -6.71239
H          8.46118       -3.58836       -7.71705
H          8.56230       -1.89945       -7.16994
H         11.63482       -3.77687       -4.81665
H         11.38232       -2.51124       -6.03568
H         11.27235       -4.22415       -6.49530
