18

C          0.90570       -0.02457       -0.06632
C          2.43669       -0.04401       -0.03935
C          3.08444        1.09039       -0.84456
N          4.49228        1.04014       -0.81639
C          5.00472        2.08893       -1.55931
C          6.52309        2.19244       -1.64148
O          7.36932        1.49227       -1.14088
O          6.94246        3.27586       -2.42341
H          0.46772       -0.85114        0.51575
H          0.52640       -0.10626       -1.09783
H          0.51329        0.91827        0.34817
H          2.81461       -1.00107       -0.43682
H          2.80378        0.02061        0.99875
H          2.65612        2.07427       -0.44902
H          2.64947        1.04572       -1.90146
H          4.67653        3.14425       -1.21654
H          4.66728        2.12153       -2.66625
H          6.12238        3.70506       -2.73393
