11

O          1.53898       -0.11306        0.19755
Nb         3.45411       -0.11430       -0.06394
S          4.99132       -1.84680       -1.08482
O          6.14338       -1.07180       -1.56621
O          5.28271       -3.12979       -0.45091
F          4.23911       -2.36339       -2.52979
Br         4.18683        2.04327        1.01599
H          1.09406       -0.76844        0.75167
H          4.75129       -0.71574        0.94612
H          3.58538        0.04313       -1.81765
H          3.19868       -1.66418        0.69074
