35

S          1.15050       -0.20183       -1.48279
Al         3.34375       -0.48847       -0.98852
S          3.73504       -0.65861        1.48897
O          5.19663       -0.48557        1.64929
O          2.86407        0.20772        2.30819
C          3.58780       -2.46819        2.36293
C          2.22357       -3.01837        2.87188
C          1.23469       -3.47042        1.74073
C         -0.27178       -3.56510        2.17576
F         -0.40902       -4.32299        3.28739
F         -0.80122       -2.35534        2.41005
F         -0.98091       -4.14955        1.18326
F          1.29490       -2.60122        0.70444
F          1.59567       -4.70804        1.29743
F          2.44255       -4.11878        3.67174
F          1.61977       -2.07766        3.64663
F          4.12803       -3.39532        1.51143
F          4.38817       -2.38792        3.46337
C          4.47278        1.13393       -1.27770
C          5.98325        0.86569       -1.34518
C          6.83181        2.08999       -1.71542
C          8.32768        1.78541       -1.73899
N          9.11285        2.96730       -2.14676
H          1.08916        1.04606       -0.96150
H          3.83087       -1.91841       -1.53911
H          4.25867        1.89088       -0.50328
H          4.12030        1.57340       -2.23027
H          6.18743        0.06393       -2.07795
H          6.32007        0.47513       -0.37155
H          6.64147        2.91139       -1.00511
H          6.52182        2.46293       -2.71034
H          8.50081        0.90174       -2.38702
H          8.65469        1.49997       -0.72605
H          8.83358        3.24708       -3.08973
H         10.10404        2.72712       -2.20533
