64

C          9.54602       -4.82988        3.29417
C          8.98456       -3.66252        2.47892
C          9.54980       -3.58833        1.05722
C          8.97452       -2.43927        0.22389
C          9.53693       -2.36784       -1.19885
C          8.92179       -1.25301       -2.05059
C          9.48262       -1.19006       -3.47636
C          8.83699       -0.10540       -4.35214
Si         9.43196       -0.06880       -6.16101
C          9.09756       -1.73824       -6.96250
C          7.77760       -2.22104       -7.07544
C          7.50223       -3.46172       -7.65684
C          8.52889       -4.29298       -8.15513
C          9.84597       -3.80251       -8.03666
C         10.12679       -2.55998       -7.45959
Al         8.22899       -6.08456       -8.97650
S          8.34455       -5.85630      -11.42051
O          9.66120       -5.41119      -11.91676
O          7.74589       -7.05634      -12.04091
C          7.08449       -4.45476      -12.02268
C          7.68074       -3.05203      -12.29312
F          8.35972       -2.59821      -11.22313
F          8.50275       -3.07068      -13.36010
F          6.68978       -2.14785      -12.56157
F          6.46659       -4.86946      -13.16046
F          6.13883       -4.33014      -11.03942
C          6.49170       -7.05551       -8.61958
O          5.37950       -6.14234       -8.26148
C          4.21960       -6.71244       -7.95867
F          4.27685       -7.55442       -6.86900
F          3.31977       -5.74233       -7.65741
F          3.67875       -7.46640       -8.96825
C          8.47802        1.29226       -7.06883
C         11.28099        0.33788       -6.21454
H          9.12172       -4.85953        4.30789
H         10.63978       -4.75665        3.39196
H          9.32367       -5.79317        2.81104
H          9.19134       -2.71295        3.00157
H          7.88570       -3.74543        2.42615
H          9.35575       -4.54419        0.53944
H         10.64903       -3.49081        1.10732
H          9.16392       -1.48166        0.74118
H          7.87615       -2.54372        0.17431
H          9.37471       -3.33655       -1.70280
H         10.63212       -2.23185       -1.15216
H          9.07655       -0.27916       -1.55180
H          7.82803       -1.39689       -2.10166
H          9.34773       -2.17334       -3.95770
H         10.57362       -1.02852       -3.42394
H          8.99950        0.89219       -3.90534
H          7.74209       -0.25101       -4.36854
H          6.94177       -1.61662       -6.70602
H          6.46152       -3.78869       -7.72528
H         10.67965       -4.40526       -8.41020
H         11.16731       -2.22730       -7.39895
H          9.47619       -7.10194       -8.87340
H          6.62295       -7.76268       -7.78327
H          6.18346       -7.63738       -9.50279
H          7.40031        1.07548       -7.08481
H          8.81324        1.37180       -8.11266
H          8.61884        2.27209       -6.58822
H         11.88343       -0.41317       -5.68436
H         11.47318        1.31424       -5.74512
H         11.64536        0.38737       -7.25061
