39

S          1.11438        0.21804        0.33084
C          2.95921        0.05281        0.26861
C          3.35159       -1.42890        0.25303
C          4.86592       -1.62945        0.28733
In         5.66553       -3.75900        0.10416
C          4.31996       -5.14922        1.34667
C          4.35654       -5.00887        2.87575
C          5.60314       -5.59465        3.54399
C          2.87345       -5.02764        0.84962
C          7.86293       -3.73441        0.77830
C          8.21894       -3.03262        2.09877
C          8.15342       -1.50217        2.06705
C          8.41192       -5.16612        0.76972
H          1.05306        1.57116        0.31828
H          3.38506        0.55147        1.15070
H          3.32679        0.55826       -0.63552
H          2.90445       -1.90469       -0.63658
H          2.88737       -1.91922        1.12512
H          5.25709       -1.21168        1.23002
H          5.34517       -1.05849       -0.52799
H          5.59102       -4.31196       -1.60451
H          4.67456       -6.16806        1.09943
H          3.46891       -5.51771        3.31725
H          4.25027       -3.94800        3.17037
H          5.71241       -6.66278        3.29567
H          5.55861       -5.51049        4.64165
H          6.51814       -5.09014        3.20826
H          2.43375       -4.05255        1.11291
H          2.20802       -5.79552        1.30141
H          2.79516       -5.12523       -0.24396
H          8.36996       -3.17733       -0.03283
H          9.25178       -3.32092        2.40217
H          7.57646       -3.39321        2.92204
H          8.81934       -1.09587        1.28897
H          8.46161       -1.06563        3.03084
H          7.14008       -1.14294        1.84565
H          7.91471       -5.80441        1.51889
H          9.49947       -5.20348        1.00128
H          8.26621       -5.65329       -0.20668
