30

C          0.96050       -1.62507        1.07619
C          2.43757       -1.32678        1.36759
C          2.69703        0.17960        1.49426
In         1.59125        1.35096        3.06122
C          0.42463        2.91516        1.93132
C          0.12162        2.66563        0.57946
C         -0.46969        3.61963       -0.25839
C         -0.75562        4.89538        0.23317
C         -0.44969        5.19357        1.56227
C          0.11358        4.21124        2.40078
C          0.30349        4.59830        3.84374
O         -0.24130        4.06857        4.78446
O          1.08871        5.71078        4.04645
Cl         3.44092        2.79386        3.96047
C          2.90656       -2.08803        2.61461
H          0.61892       -1.09112        0.17604
H          0.32827       -1.29661        1.91694
H          0.78315       -2.70175        0.91955
H          3.02021       -1.72528        0.50921
H          2.49353        0.67854        0.53177
H          3.75812        0.36920        1.72205
H          0.81077        0.53837        4.40970
H          0.36355        1.68676        0.15318
H         -0.69778        3.37072       -1.29854
H         -1.21251        5.65199       -0.40842
H         -0.67479        6.18583        1.96372
H          1.59269        5.86138        3.22687
H          2.36008       -1.74284        3.50607
H          3.97798       -1.91720        2.79773
H          2.74580       -3.17373        2.51184
