32

C          4.85914       -0.02923        4.24091
O          4.62023        0.56271        2.98368
C          5.52647        0.08700        1.98872
C          5.38723        0.89226        0.71168
O          6.01766        2.13577        0.86553
C          6.05297        2.89110       -0.36137
C          6.83363        4.18102       -0.17900
B          8.43844        4.06711        0.17816
C          9.27555        3.12293       -0.87707
C         10.75911        3.13078       -0.52783
C         11.71360        2.34011       -1.40856
O         11.42287        1.74155       -2.44101
N         13.02297        2.30316       -0.93266
F          8.99556        5.43862        0.11112
H          4.14251        0.40654        4.95064
H          5.88670        0.17358        4.60013
H          4.71342       -1.12937        4.21650
H          5.31997       -0.98412        1.78067
H          6.56811        0.17608        2.35144
H          4.30895        1.00520        0.45807
H          5.85519        0.31107       -0.11394
H          4.99978        3.06864       -0.67976
H          6.52423        2.25990       -1.14470
H          6.31541        4.80466        0.57275
H          6.74386        4.73182       -1.13731
H          8.61994        3.63450        1.33638
H          9.15090        3.47548       -1.91875
H          8.90930        2.08069       -0.85997
H         10.89763        2.78140        0.51288
H         11.11973        4.17738       -0.51602
H         13.30896        2.98341       -0.23783
H         13.72982        1.98851       -1.58853
