20

C          1.35155        0.56898       -0.24992
C          2.68785       -0.14813        0.00993
B          2.97616       -0.49138        1.57129
C          2.03697       -1.61886        2.30463
C          1.92329       -3.06743        1.74962
F          1.48960       -3.06970        0.46091
F          3.10636       -3.71370        1.78983
F          1.03182       -3.81787        2.46233
F          2.34166       -1.78410        3.64864
F          0.70994       -1.15316        2.28574
S          4.87695       -0.83147        1.78056
O          5.65227        0.31447        1.32202
O          5.29344       -1.48288        3.01295
F          5.19187       -1.98818        0.60219
H          1.24044        0.85316       -1.30958
H          1.27435        1.48821        0.35148
H          0.49001       -0.05957        0.01597
H          3.50522        0.50372       -0.33845
H          2.74347       -1.05209       -0.61843
H          2.88963        0.48817        2.29544
