38

N          1.13339        1.37981        1.05026
C          2.42596        0.80624        0.96432
N          2.81862       -0.28185        1.54053
N          3.27831        1.56262        0.19608
C          4.70270        1.25129        0.08185
C          5.36228        2.17050       -0.94386
C          6.87188        1.92891       -1.11070
C          7.54176        2.82326       -2.14917
Nb         9.65764        2.68620       -2.72921
C          9.90127        4.47171       -4.09408
C         11.25883        4.90102       -4.69734
C         11.25903        5.79680       -5.98524
F         10.81841        5.13270       -7.07340
F         10.49183        6.89702       -5.81986
F         12.52371        6.22261       -6.26238
F         11.98129        5.59090       -3.76870
F         11.96111        3.76706       -5.03536
F          9.07446        4.15005       -5.22502
F          9.31193        5.61598       -3.55407
C          9.91807        0.80619       -3.84289
H          0.44588        0.72976        1.41901
H          0.81117        1.78714        0.17370
H          2.02769       -0.76649        1.97428
H          3.05292        2.55175        0.14216
H          4.79301        0.19692       -0.21652
H          5.20310        1.34152        1.06308
H          5.20508        3.22478       -0.64764
H          4.85982        2.04467       -1.91801
H          7.02427        0.86608       -1.37287
H          7.37538        2.07252       -0.14047
H          7.44890        3.88971       -1.85761
H          7.02303        2.72191       -3.13216
H          9.64615        2.78842       -0.97712
H         10.93998        1.84808       -1.88889
H         10.94723        3.70153       -2.06886
H          9.19806        0.81776       -4.68809
H          9.71541       -0.08559       -3.22658
H         10.93319        0.69396       -4.25680
