31

N          2.61810        1.96243        0.87977
C          2.69567        3.09716       -0.05430
C          3.28648        2.66066       -1.40576
C          4.82296        2.30794       -1.28944
O          5.06870        1.46603       -0.36782
O          5.60235        2.84667       -2.09933
C          2.55942        1.48377       -2.06742
C          1.02472        1.54913       -2.16327
C          0.43015        2.73234       -2.94577
C          0.92725        2.82445       -4.39451
N          0.45893        4.00622       -5.11276
C         -0.80234        4.10961       -5.66110
N         -1.70557        3.19466       -5.80123
N         -1.08420        5.41033       -6.12429
F          3.11751        3.81122       -2.25493
H          2.52230        2.31885        1.83217
H          3.54955        1.51232        0.80573
H          3.32490        3.93471        0.30702
H          1.68414        3.50692       -0.22705
H          2.83134        0.59132       -1.48650
H          3.01315        1.35157       -3.06327
H          0.61118        1.55366       -1.14265
H          0.67514        0.60729       -2.62496
H          0.69127        3.67465       -2.44252
H         -0.67033        2.65954       -2.94238
H          0.63099        1.93338       -4.97287
H          2.02418        2.86116       -4.40290
H          0.85993        4.88038       -4.78460
H         -1.43560        2.33939       -5.30879
H         -0.31227        5.84050       -6.62913
H         -1.93402        5.39851       -6.68247
