30

C          1.19924       -0.43295       -0.28224
S          3.01350       -0.42502       -0.25123
C          3.31254        1.21482        0.50557
C          4.81316        1.50100        0.51272
C          5.25654        2.83826        1.15383
C          4.76258        4.09124        0.29870
O          5.12957        5.22135        0.74550
O          4.07637        3.85745       -0.72749
C          4.79619        2.94401        2.63532
C          3.45948        3.65159        2.87423
N          3.03006        3.46251        4.27855
C          6.81002        2.81783        1.10571
N          7.41420        3.99143        1.75559
H          0.88515       -1.38407       -0.73229
H          0.81027        0.39500       -0.89148
H          0.77815       -0.36720        0.73193
H          2.89492        1.18955        1.52352
H          2.80846        1.98836       -0.08961
H          5.15978        1.49569       -0.53172
H          5.33223        0.67777        1.04091
H          5.56574        3.46878        3.21812
H          4.73769        1.91887        3.05317
H          2.70335        3.30756        2.14481
H          3.59864        4.72611        2.69377
H          2.87159        2.46571        4.44927
H          2.12757        3.91850        4.42602
H          7.09556        2.71727        0.03795
H          7.16390        1.89775        1.61461
H          6.80653        4.78851        1.48534
H          8.33614        4.16233        1.35282
