46

C          0.48245        0.86610       -0.52373
O          1.83148        0.52044       -0.76163
C          2.64352        1.67064       -0.97925
C          4.07744        1.22306       -1.22921
O          4.84071        2.39909       -1.41093
C          6.23435        2.13911       -1.62509
C          6.86318        3.49351       -1.96525
C          8.41490        3.56583       -2.10887
C          9.04085        3.42223       -0.68063
C          8.37119        4.20470        0.54045
C          9.34449        4.44693        1.75662
F          9.95823        3.30740        2.14232
F         10.27448        5.37577        1.49177
F          8.61037        4.89170        2.81018
F          7.87136        5.41866        0.21720
F          7.33826        3.45475        1.04063
F          8.99329        2.09282       -0.27401
F         10.37186        3.75950       -0.63428
C          9.00489        2.51226       -3.08706
C         10.29222        1.97577       -2.86062
C         10.89555        1.05812       -3.71762
C         10.21832        0.61121       -4.85057
C          8.94808        1.11607       -5.10054
C          8.33857        2.07148       -4.26516
C          6.99238        2.51691       -4.83130
O          6.15118        1.66813       -5.12464
O          6.84339        3.79714       -5.08296
C          8.79331        5.03113       -2.70353
O          9.40859        5.81744       -1.98396
O          8.41361        5.23708       -3.90865
H         -0.07343       -0.06822       -0.36860
H          0.04118        1.40896       -1.38224
H          0.37579        1.50149        0.37746
H          2.61230        2.33866       -0.09618
H          2.27678        2.24640       -1.85049
H          4.12495        0.57381       -2.12460
H          4.44320        0.63466       -0.36315
H          6.35590        1.42168       -2.45485
H          6.66627        1.69048       -0.71396
H          6.54091        4.21333       -1.20348
H          6.40686        3.84960       -2.89319
H         10.85972        2.28098       -1.98884
H         11.89784        0.69326       -3.48494
H         10.66909       -0.11541       -5.52916
H          8.38067        0.78111       -5.96971
H          7.61052        4.41307       -4.56425
