29

N          3.66558        1.03444        0.94456
C          3.12518       -0.26201        0.49694
In         3.39213       -0.58153       -1.68837
S          2.18901        1.91160       -2.43147
O          2.11692        2.79533       -1.23792
O          2.80372        2.52431       -3.64533
C          0.30798        1.72204       -2.96968
C         -0.45735        3.00088       -3.38720
F          0.10335        3.57815       -4.46704
F         -1.75489        2.70624       -3.71256
F         -0.49020        3.89915       -2.38413
F          0.26280        0.84365       -4.01674
F         -0.36257        1.15678       -1.91903
C          5.20888        0.17043       -2.71132
C          5.83210        1.44718       -2.09644
C          6.57948        2.26177       -3.14800
O          7.80491        2.22569       -3.30521
N          5.76276        3.03578       -3.92429
H          3.44672        1.19528        1.93160
H          3.21291        1.79398        0.42853
H          2.05727       -0.42570        0.74203
H          3.68985       -1.07423        0.98696
H          2.44395       -1.85148       -2.46345
H          4.86406        0.37201       -3.73626
H          5.96603       -0.62402       -2.78658
H          6.54216        1.18754       -1.30145
H          5.06621        2.09263       -1.64077
H          4.74368        2.95788       -3.85941
H          6.17438        3.49162       -4.73013
