31

C          1.41911       -0.09221        1.46992
C          2.79135       -0.02816        0.79313
C          3.31463       -1.38950        0.32155
C          4.68829       -1.32456       -0.36943
C          5.24210       -2.65042       -0.87576
Nb         7.21514       -3.09070       -1.78578
C          8.47820       -4.47621       -0.58353
C          9.84671       -4.18704       -0.01296
N         10.39625       -5.32056        0.79984
O          7.16894       -3.43802       -3.72981
H          1.07335        0.89990        1.79911
H          1.44423       -0.74662        2.35531
H          0.65881       -0.49996        0.78560
H          3.52409        0.41709        1.48803
H          2.74390        0.65715       -0.07076
H          2.57956       -1.84222       -0.36995
H          3.37517       -2.07633        1.18624
H          5.42356       -0.88238        0.32334
H          4.62626       -0.62130       -1.21808
H          4.53060       -3.10691       -1.60441
H          5.30589       -3.38050       -0.03136
H          8.74863       -2.25992       -2.02569
H          7.71485       -2.01373       -0.44329
H          7.14970       -1.36704       -2.13593
H          8.50268       -5.42265       -1.16908
H          7.75364       -4.64460        0.25017
H          9.78834       -3.24511        0.56039
H         10.55686       -4.01204       -0.83676
H          9.70245       -5.55273        1.51625
H         11.22534       -5.00234        1.31252
H          7.54593       -2.88232       -4.42337
