7

O          1.10216       -0.03098       -0.04486
S          2.57319        0.04640        0.08890
O          3.11308        1.40765       -0.04213
O          3.11348       -0.74964        1.20070
N          3.23845       -0.76538       -1.32062
H          2.81986       -0.28212       -2.12200
H          2.81848       -1.70042       -1.30608
