71

C          0.89361       -0.29812        0.22617
C          2.42222       -0.22910        0.17125
C          2.95395        1.07621       -0.43080
C          4.48260        1.13963       -0.50510
C          5.02311        2.43637       -1.11560
C          6.55115        2.47397       -1.21401
C          7.10047        3.75396       -1.85432
C          8.63235        3.77268       -1.97992
Si         9.34346        5.24012       -2.95468
C          8.70961        5.20730       -4.72379
C          8.61974        6.37536       -5.49992
C          8.16679        6.34387       -6.82002
C          7.76849        5.14886       -7.44760
C          7.85712        3.98066       -6.66675
C          8.31662        4.01046       -5.35028
C          7.22745        5.09121       -8.89704
C          5.77933        5.66899       -8.91450
C          5.30998        7.20529       -8.75468
C          5.46747        8.25971       -9.90744
F          4.88389        7.86547      -11.05360
F          4.85742        9.41214       -9.51774
F          6.75377        8.56784      -10.16357
F          3.95167        7.17134       -8.55153
F          5.86066        7.78249       -7.64664
F          5.12073        5.31438      -10.07448
F          5.09797        5.11119       -7.85444
C          8.26531        5.59319       -9.97336
C          7.72314        5.74944      -11.42099
C          7.33900        4.45942      -12.15798
C          9.19986        6.76924       -9.62465
C          7.08134        3.40839       -9.23166
O          8.19934        2.89557       -9.45632
O          5.95255        2.90349       -9.15580
C          8.83746        6.85884       -2.11012
C         11.23342        5.11064       -2.92953
H          0.54535       -1.24624        0.66052
H          0.45571       -0.21315       -0.77987
H          0.47800        0.51953        0.83463
H          2.80832       -1.08030       -0.41524
H          2.83417       -0.35361        1.18786
H          2.57838        1.93069        0.16047
H          2.53520        1.20607       -1.44439
H          4.85167        0.28185       -1.09491
H          4.90277        1.00965        0.50881
H          4.67099        3.29743       -0.51966
H          4.59297        2.57205       -2.12311
H          6.89718        1.60578       -1.80255
H          6.98947        2.34906       -0.20706
H          6.76572        4.62556       -1.26528
H          6.64523        3.87621       -2.85120
H          8.97668        2.84591       -2.47211
H          9.09899        3.76441       -0.97892
H          8.89933        7.34364       -5.07508
H          8.11474        7.28580       -7.35808
H          7.55599        3.02615       -7.09427
H          8.35738        3.06457       -4.80302
H          8.92584        4.71032      -10.00256
H          8.53011        6.23807      -11.99329
H          6.87883        6.44846      -11.47014
H          8.16758        3.73820      -12.15414
H          7.08368        4.69074      -13.20414
H          6.47443        3.95949      -11.70617
H          8.69936        7.73342       -9.47070
H          9.90561        6.90383      -10.45897
H          9.79792        6.55391       -8.73114
H          7.74793        6.99600       -2.14233
H          9.29733        7.72784       -2.60157
H          9.15457        6.86376       -1.05680
H         11.56188        4.17434       -3.40232
H         11.62723        5.13493       -1.90241
H         11.68443        5.94184       -3.48997
