32

C          7.85570        4.35661        0.15102
O          7.91321        3.44174       -0.92183
C          6.71377        3.43766       -1.68879
C          6.73922        2.32405       -2.72103
O          6.58555        1.07897       -2.07387
C          6.06633        0.02829       -2.91599
C          7.00354       -0.49959       -3.98803
Ta         8.94795       -1.50223       -3.77594
C         10.56914       -1.54431       -2.25675
C         10.70014       -0.27153       -1.41608
N          9.57436       -0.16273       -0.45412
F          9.98081        0.01163       -4.45843
H          8.81273        4.29522        0.68542
H          7.03577        4.11095        0.85481
H          7.70667        5.39834       -0.20089
H          6.59446        4.41545       -2.20338
H          5.84047        3.29191       -1.02133
H          7.67940        2.37153       -3.30414
H          5.89764        2.50420       -3.42480
H          5.10904        0.40695       -3.34600
H          5.83416       -0.78566       -2.21563
H          7.09930        0.21380       -4.83335
H          6.51223       -1.40414       -4.42139
H          8.01258       -1.97540       -2.29453
H          9.03047       -2.35495       -5.36541
H          9.05784       -3.28723       -3.50931
H         11.47169       -1.66784       -2.89121
H         10.50330       -2.42546       -1.60235
H         10.75226        0.60593       -2.08837
H         11.64949       -0.27142       -0.84013
H          8.79711       -0.71617       -0.83334
H          9.22972        0.79849       -0.42634
