23

O          5.00245        0.16600        1.68329
As         3.80120        0.00194        0.23685
S          4.44938        2.40516       -0.31316
O          4.21735        3.22955        0.88412
O          5.72397        2.54284       -1.03198
C          3.09733        3.17993       -1.52916
C          3.29317        2.85879       -3.03698
C          2.07171        3.17240       -3.97356
F          1.03165        2.35543       -3.72774
F          1.66140        4.45003       -3.82041
F          2.43700        3.00440       -5.26695
F          4.34505        3.57562       -3.51306
F          3.56019        1.52860       -3.18146
F          1.87792        2.70892       -1.12298
F          3.10760        4.52783       -1.36339
S          2.89203       -2.30258        0.62185
O          1.45333       -2.27561        0.86690
O          3.42552       -3.29261       -0.30786
F          3.53263       -2.75339        2.10018
H          4.56082        0.65848        2.39793
H          2.66222        0.51644        1.15504
H          5.03816       -0.59350       -0.46326
H          2.88150       -0.04555       -1.03678
