38

C          1.11255        0.48871        0.24018
C          2.56891       -0.00476        0.26446
C          2.98561       -1.05965       -0.80488
C          2.49552       -2.48159       -0.46983
C          1.64774       -2.68343        0.64069
C          1.15737       -3.93332        1.01956
C          1.52971       -5.07076        0.30480
C          2.39969       -4.91744       -0.77088
C          2.87257       -3.65789       -1.17819
C          3.81358       -3.76112       -2.37100
O          4.78033       -4.52164       -2.31590
O          3.49352       -3.09005       -3.45573
C          2.39894       -0.51360       -2.20134
O          2.53804        0.70080       -2.41033
O          1.83270       -1.35877       -2.98379
C          4.54059       -0.97918       -0.96630
C          5.44109       -1.09921        0.28320
C          5.45754       -2.49639        0.91959
C          6.87037       -0.68264       -0.10044
H          0.91685        1.13551        1.11004
H          0.37752       -0.32745        0.25855
H          0.93433        1.07351       -0.67039
H          2.82370       -0.38407        1.26749
H          3.20851        0.87310        0.09422
H          1.35880       -1.83060        1.24970
H          0.49295       -4.01059        1.88334
H          1.16472       -6.06063        0.58573
H          2.74985       -5.78981       -1.32478
H          2.68389       -2.39097       -3.24626
H          4.72323        0.00847       -1.41918
H          4.88401       -1.71710       -1.70707
H          5.08594       -0.37974        1.04170
H          5.75121       -3.25925        0.18230
H          4.47364       -2.78410        1.31077
H          6.17739       -2.53083        1.75345
H          7.27817       -1.35706       -0.87016
H          7.54419       -0.72273        0.76991
H          6.89521        0.33986       -0.50601
