51

C          1.05456        0.32017       -0.01826
B          2.64870        0.66096       -0.24738
C          3.36574        1.20248        1.11028
C          4.20979        2.33460        1.11679
C          4.86088        2.78871        2.26555
C          4.70121        2.13472        3.50509
C          3.86569        0.99667        3.51736
C          3.22764        0.55284        2.35836
Si         5.63329        2.68631        5.02186
C          7.36747        1.88241        5.03935
C          7.32472        0.36306        4.84100
C          8.68055       -0.30518        4.89237
F          9.53768        0.15919        3.94071
F          9.30870       -0.12574        6.09805
F          8.58835       -1.65636        4.70988
C          5.89539        4.56042        5.05515
C          4.74110        2.17360        6.61348
C          3.44980       -0.68612       -0.78641
C          4.93064       -0.46407       -1.11277
C          5.59609       -1.71908       -1.70384
C          7.09756       -1.69908       -1.89479
C          7.68093       -0.61893       -2.86136
F          7.56169        0.62414       -2.35570
F          8.99807       -0.83933       -3.09786
F          7.04010       -0.65346       -4.05673
F          7.76270       -1.53934       -0.69970
F          7.52015       -2.91768       -2.41365
H          0.48267        1.19241        0.34415
H          0.87953       -0.49370        0.71259
H          0.57496       -0.00479       -0.95914
H          2.76952        1.54696       -1.11573
H          4.34959        2.87419        0.17512
H          5.50165        3.67445        2.19462
H          3.70471        0.44894        4.45241
H          2.58845       -0.33363        2.42284
H          7.87081        2.13379        5.98733
H          7.95834        2.34360        4.23231
H          6.87524        0.10775        3.86962
H          6.71269       -0.13080        5.61155
H          6.44733        4.90242        4.16872
H          6.46680        4.86215        5.94541
H          4.93030        5.08562        5.07103
H          4.61456        1.08427        6.68544
H          3.73935        2.62393        6.65370
H          5.30444        2.50572        7.49799
H          2.93705       -1.05866       -1.69551
H          3.37261       -1.50759       -0.04321
H          5.47199       -0.15890       -0.20281
H          5.01706        0.37778       -1.81833
H          5.14745       -1.96927       -2.67781
H          5.41261       -2.58142       -1.04150
