18

O          1.83800        0.50666        0.02828
C          2.71790       -0.25085       -0.74536
O          2.42979       -1.42175       -0.94500
C          3.91260        0.46959       -1.20826
In         5.14923        1.32844        0.52204
C          6.60753        2.60072       -0.65133
O          7.47750        1.69835       -1.45869
C          8.28066        2.26635       -2.34113
F          7.63251        2.96908       -3.33490
F          9.18153        3.16322       -1.80398
F          9.01467        1.30453       -2.96240
H          2.31867        1.31310        0.30975
H          3.64349        1.40933       -1.71169
H          4.51895       -0.15629       -1.86994
H          5.96894        0.12602        1.51047
H          3.94726        2.38218        1.33332
H          7.27310        3.22240       -0.03459
H          6.07106        3.25272       -1.35679
