28

C          1.78991       -1.80522       -1.88918
C          3.10022       -1.79746       -1.08890
C          2.93939       -1.45199        0.37792
As         4.75082       -1.27378        1.35193
C          6.60825       -0.74677        2.13343
C          7.55418       -0.26759        1.03063
C          7.70002        1.24389        0.93545
O          8.77708        1.82348        1.01332
O          6.56141        1.93089        0.75294
C          4.65271       -3.17596        2.16100
H          1.95871       -2.05390       -2.95008
H          1.29854       -0.82078       -1.84941
H          1.07902       -2.54151       -1.48208
H          3.80145       -1.07472       -1.54356
H          3.59102       -2.78165       -1.18547
H          2.35346       -2.20816        0.92593
H          2.47347       -0.46458        0.51620
H          5.55092       -1.82766        0.03637
H          4.82393        0.32742        0.57998
H          3.99787       -0.61599        2.61548
H          7.00661       -1.63749        2.64006
H          6.39330        0.02546        2.88480
H          7.14972       -0.63796        0.05814
H          8.56681       -0.68001        1.13109
H          5.76515        1.26183        0.66503
H          4.34212       -3.87621        1.37193
H          3.92389       -3.19880        2.98450
H          5.63869       -3.48230        2.53819
