67

O          3.02026       -2.55111        3.47440
C          2.83363       -1.18331        3.36732
O          3.13439       -0.62886        2.33601
C          2.28672       -0.51712        4.59523
C          2.73306       -0.98341        5.85014
C          2.29727       -0.37963        7.02777
C          1.39945        0.68747        6.94554
C          0.96128        1.14251        5.69752
C          1.38847        0.57351        4.47987
Ga         0.71724        1.33013        2.70186
C         -0.87243        2.67490        3.12743
C         -2.25990        2.16464        3.56930
F         -2.16460        1.42979        4.71185
F         -3.15743        3.16574        3.82735
F         -2.81784        1.37554        2.62079
F         -0.51542        3.61765        4.11069
F         -1.13178        3.43406        1.97957
C         -0.08966       -0.08154        1.50404
C         -0.54671       -1.32767        1.97365
C         -1.12166       -2.27658        1.12324
C         -1.28235       -2.02233       -0.25483
C         -0.83649       -0.77304       -0.73118
C         -0.25209        0.16319        0.12739
Si        -2.00571       -3.32249       -1.39311
C         -3.55720       -4.09996       -0.59371
C         -4.69947       -3.10450       -0.34897
C         -5.92148       -3.76335        0.26605
C         -7.13053       -2.83103        0.63739
C         -7.84005       -1.96698       -0.47444
C         -8.57794       -2.64065       -1.70369
C         -9.74090       -3.66142       -1.41189
C        -10.67661       -3.94651       -2.64858
F         -9.95689       -4.28049       -3.73625
F        -11.48832       -4.97875       -2.33931
F        -11.44471       -2.88346       -2.94214
F         -9.21311       -4.84883       -1.03236
F        -10.53732       -3.18880       -0.41815
F         -9.11623       -1.60172       -2.40872
F         -7.65618       -3.24734       -2.49188
F         -8.76009       -1.19539        0.16501
F         -6.91185       -1.13704       -1.02841
F         -8.10175       -3.58629        1.23108
F         -6.68297       -1.92720        1.55347
F         -6.41755       -4.75652       -0.55366
F         -5.59298       -4.37538        1.45524
C         -2.49440       -2.57479       -3.06392
C         -0.78988       -4.74387       -1.68677
H          2.62578       -2.83465        4.31806
H          3.46789       -1.79253        5.90682
H          2.66255       -0.73209        7.99443
H          1.04180        1.17202        7.85750
H          0.26366        1.98068        5.67421
H          1.73239        2.29262        1.96988
H         -0.45577       -1.57015        3.03750
H         -1.45026       -3.23296        1.54576
H         -0.94365       -0.52426       -1.79172
H          0.08672        1.11630       -0.28971
H         -3.25589       -4.56308        0.35860
H         -3.90333       -4.91980       -1.24353
H         -5.01326       -2.63253       -1.29053
H         -4.37757       -2.29607        0.32467
H         -3.19576       -1.73614       -2.94911
H         -2.96980       -3.33166       -3.70543
H         -1.61275       -2.19333       -3.59823
H         -0.49350       -5.20606       -0.73444
H          0.12514       -4.37384       -2.17051
H         -1.22473       -5.52629       -2.32689
