35

C          2.42647        0.09079        0.66113
C          0.93112        0.13789        0.45491
C          0.36854        0.82099       -0.63151
C         -1.01846        0.84001       -0.82783
C         -1.90857        0.18964        0.04582
C         -1.32571       -0.48834        1.13426
C          0.05757       -0.51740        1.33826
Ga        -3.89934        0.25930       -0.30344
C         -4.73436       -1.58996       -0.20238
C         -6.02926       -1.73053        0.33639
C         -6.66947       -2.97388        0.39378
C         -6.03186       -4.12920       -0.07845
C         -4.74636       -4.01115       -0.60500
C         -4.11179       -2.75727       -0.66641
C         -4.01794       -5.22507       -1.10655
F         -4.74347       -6.37734       -0.98941
F         -3.67724       -5.12064       -2.42883
F         -2.84452       -5.44262       -0.43676
C         -8.05816       -3.11678        0.94822
F         -8.56456       -1.96211        1.44773
F         -8.95317       -3.55487        0.00015
F         -8.12306       -4.04226        1.96157
O         -4.87064        1.15563        1.05357
H          2.94179        0.79976       -0.00234
H          2.83212       -0.91277        0.45243
H          2.70039        0.33751        1.69841
H          1.02846        1.34513       -1.33167
H         -1.42163        1.38088       -1.69101
H         -1.96891       -1.00967        1.85022
H          0.47027       -1.05703        2.19754
H         -4.14624        0.97908       -1.71939
H         -6.53019       -0.84067        0.72481
H         -6.52615       -5.09872       -0.03096
H         -3.10147       -2.70232       -1.08277
H         -4.89965        2.09775        0.83747
