12

Al         0.83849        0.26270        0.29940
C          2.86282        0.02102        0.06871
O          3.58167        0.10767        1.38554
C          4.88640       -0.03261        1.37397
F          5.33877       -1.24863        0.89226
F          5.56816        0.91096        0.62615
F          5.36665        0.07337        2.64812
H          0.26864        0.12071       -1.24014
H          0.25205       -0.92564        1.26697
H          0.52945        1.75211        0.91503
H          3.30503        0.79563       -0.57959
H          3.11848       -0.96120       -0.36213
