31

C          4.52793        3.88817        2.23852
C          3.27158        3.42492        1.50777
P          3.13546        1.49931        1.29431
C          2.19520        1.22282        2.97963
C          0.68665        1.30819        2.88778
O          0.18179        0.13839        2.22344
C         -1.10453        0.31199        1.68815
C         -1.43520       -0.85565        0.78064
O         -1.75352       -2.01743        1.54872
C         -1.85758       -3.16881        0.74091
O          4.05368        1.68632       -0.25446
H          4.58763        4.98677        2.34533
H          5.42753        3.55148        1.70046
H          4.58679        3.45604        3.25177
H          3.23755        3.83920        0.48942
H          2.36110        3.76191        2.03522
H          4.40591        1.29073        2.03580
H          3.05327        0.02949        1.02268
H          1.84972        1.70957        0.57373
H          2.54655        1.97918        3.70279
H          2.48878        0.23298        3.36635
H          0.40192        2.20314        2.29424
H          0.18787        1.39325        3.88119
H         -1.14710        1.23990        1.07928
H         -1.87844        0.39869        2.48371
H         -0.56018       -1.05404        0.13365
H         -2.29734       -0.59179        0.13247
H         -2.08793       -4.01516        1.40246
H         -0.91203       -3.37878        0.20437
H         -2.66678       -3.07440       -0.01300
H          4.22829        0.76920       -0.51681
