53

C          0.75240        0.29998        0.89332
C          1.79054        0.36123       -0.23017
C          3.11365        0.96904        0.26037
C          4.16617        1.13733       -0.85409
S          5.77830        1.75914       -0.04135
O          6.05327        0.89607        1.11289
O          6.81066        1.93941       -1.05026
C          5.61295        3.52288        0.78794
C          6.54054        3.61360        2.05620
F          6.07154        2.89225        3.08970
F          7.80062        3.22751        1.78179
F          6.59269        4.91315        2.46798
F          6.03646        4.47601       -0.05804
F          4.35692        3.79797        1.21887
C          4.64254       -0.16277       -1.48095
C          4.72876       -1.35270       -0.74029
C          5.21919       -2.52714       -1.31486
C          5.65308       -2.55954       -2.65229
C          5.56304       -1.36040       -3.38847
C          5.07044       -0.18672       -2.82109
Si         6.37630       -4.10651       -3.43043
C          5.31154       -4.61015       -4.93361
C          5.84123       -5.83383       -5.68960
C          4.99842       -6.24582       -6.87754
F          4.91195       -5.26957       -7.82332
F          5.52131       -7.34745       -7.50244
F          3.72189       -6.57069       -6.52709
C          8.14179       -3.77408       -4.02807
C          6.39375       -5.54075       -2.19576
C          3.67276        2.25601       -1.87116
O          4.01552        3.41763       -1.55027
O          2.95699        1.83754       -2.80873
H         -0.19252       -0.13912        0.54083
H          0.52794        1.30541        1.28121
H          1.10764       -0.30749        1.74089
H          1.41435        0.95554       -1.07452
H          1.96998       -0.64997       -0.62749
H          3.52327        0.36067        1.08316
H          2.90874        1.96442        0.67994
H          4.43107       -1.36115        0.30827
H          5.27407       -3.42761       -0.69763
H          5.89100       -1.33174       -4.43208
H          4.99553        0.72256       -3.41413
H          5.24509       -3.74622       -5.61335
H          4.28757       -4.79928       -4.57545
H          5.89717       -6.71785       -5.03622
H          6.85455       -5.65771       -6.08071
H          8.16247       -2.95669       -4.76299
H          8.59990       -4.66060       -4.49103
H          8.77594       -3.46992       -3.18346
H          5.37890       -5.79329       -1.85656
H          6.99046       -5.28755       -1.30789
H          6.83497       -6.44480       -2.64059
