17

O          3.34878       -1.18860        1.09263
Ta         3.61044        0.09840       -0.25547
S          4.23803       -2.19984       -1.38516
O          5.46670       -2.32119       -2.18446
O          4.06356       -3.25358       -0.32138
C          2.90037       -2.88503       -2.64972
C          2.65667       -2.11017       -3.97514
F          2.05843       -0.92359       -3.76608
F          3.80276       -1.90336       -4.64929
F          1.83011       -2.83476       -4.79442
F          3.32565       -4.13554       -2.99904
F          1.69340       -3.01533       -2.02371
I          3.16877        2.65327        0.58041
H          3.53433       -2.15297        0.86583
H          2.27129       -0.46090       -1.24254
H          5.33192       -0.23143       -0.41132
H          4.09749        0.23032       -1.95990
