13

B          1.13543       -0.12286        0.00568
C          0.32183        0.77008        1.07381
C          1.19540        1.53893        2.05817
N          0.38429        2.39639        2.96315
Br         2.18560       -1.66925        1.02696
Cl        -0.06219       -0.92697       -1.23522
H          1.99543        0.46467       -0.61866
H         -0.40390        0.15521        1.63277
H         -0.27471        1.49948        0.48854
H          1.94865        2.12145        1.49006
H          1.75386        0.82594        2.68457
H         -0.19942        3.00869        2.38696
H          0.99917        3.01829        3.49471
