24

C          0.94291       -0.06738        0.00962
C          2.47434       -0.09308        0.04923
C          3.04581       -0.79434        1.28463
C          4.58112       -0.82898        1.34492
N          5.06279       -1.48365        2.49249
C          6.46907       -1.48814        2.50672
C          7.04969       -2.19141        3.74342
C          8.58098       -2.21441        3.78412
H          0.55637        0.44261       -0.88791
H          0.53348        0.45164        0.89102
H          0.53058       -1.08911        0.01636
H          2.85882        0.94122        0.00907
H          2.85577       -0.59095       -0.85948
H          2.67736       -1.83498        1.32984
H          2.67774       -0.29987        2.20153
H          4.94160        0.25387        1.24485
H          4.94173       -1.29343        0.36166
H          6.93501       -0.44213        2.47233
H          6.93953       -1.98958        1.59045
H          6.65184       -3.22037        3.76836
H          6.65191       -1.68792        4.64110
H          8.99227       -2.73131        2.90194
H          8.96749       -2.72566        4.68115
H          8.99162       -1.19162        3.78034
