41

C          0.60536       -0.57968        1.16651
C          2.10405       -0.82465        1.36246
C          2.87668        0.41164        1.83401
C          4.38025        0.16576        2.03164
C          5.18759        1.38075        2.50763
Al         7.14104        1.03755        2.86993
S          8.21421        0.83740        0.68741
O          7.61463        1.74688       -0.33160
O          9.69953        0.87966        0.80739
C          7.87825       -0.84739        0.03475
C          8.15421        2.50115        3.79951
C          7.99383        3.93534        3.27724
C          8.74843        4.99336        4.09692
C          8.59247        6.42567        3.57670
C          9.34070        7.46473        4.41652
H          0.08167       -1.48567        0.82542
H          0.42838        0.20903        0.41902
H          0.13087       -0.25289        2.10476
H          2.54424       -1.18412        0.41646
H          2.25143       -1.64092        2.09101
H          2.44223        0.77510        2.78366
H          2.73824        1.23118        1.10587
H          4.79377       -0.20147        1.07466
H          4.50817       -0.67000        2.74414
H          4.73950        1.76793        3.44457
H          5.09389        2.19963        1.77193
H          7.40920       -0.44663        3.50140
H          6.79766       -0.97173       -0.11022
H          8.26909       -1.58722        0.74316
H          8.40918       -0.90088       -0.92536
H          9.22364        2.22383        3.78807
H          7.85396        2.46599        4.86615
H          6.92376        4.21268        3.25213
H          8.33581        3.98847        2.22895
H          9.82108        4.72840        4.12111
H          8.40391        4.94724        5.14705
H          7.51970        6.68343        3.54268
H          8.94577        6.47058        2.53268
H          8.98361        7.46311        5.45836
H          9.21246        8.48418        4.02186
H         10.42022        7.25008        4.44156
