67

O          4.81667       -0.87257       -2.18276
C          3.73896       -0.33573       -1.82361
O          3.07244        0.57194       -2.38190
C          3.15555       -0.80376       -0.37961
C          2.89723       -2.29882       -0.29352
C          3.75664       -3.23671       -0.90103
C          3.50549       -4.60506       -0.80769
C          2.40484       -5.11818       -0.08633
C          1.56454       -4.17598        0.53745
C          1.80247       -2.80358        0.43658
Si         2.11512       -6.95889        0.09408
C          3.06670       -7.62237        1.61501
C          4.56925       -7.31367        1.57383
C          5.31582       -7.86121        2.77695
C          6.88144       -7.71973        2.76684
C          7.55488       -6.30104        2.63790
C          7.32210       -5.17307        3.72505
C          7.71968       -5.48417        5.21615
C          7.81553       -4.21304        6.14273
F          6.69155       -3.47985        6.07676
F          7.98212       -4.63160        7.41613
F          8.86543       -3.44200        5.81552
F          6.79476       -6.30715        5.76633
F          8.93418       -6.09401        5.25460
F          8.08145       -4.11915        3.31123
F          6.02025       -4.80045        3.69154
F          8.89715       -6.52027        2.56406
F          7.15630       -5.75227        1.45820
F          7.38554       -8.30798        3.88958
F          7.34063       -8.42401        1.68708
F          4.85890       -7.30321        3.94713
F          5.10873       -9.22290        2.89330
C          0.28651       -7.34795        0.38124
C          2.71875       -7.89580       -1.43622
C          4.26131       -0.45976        0.66004
C          4.58215        1.03591        0.72888
C          5.69112        1.30594        1.75361
C          5.97568        2.77755        1.96610
C          7.11948        3.07534        2.98452
F          6.82208        2.56707        4.20546
F          8.28589        2.52129        2.57748
F          7.32097        4.40390        3.12952
F          6.33955        3.40224        0.79606
F          4.86595        3.44150        2.44645
N          1.93386       -0.03524       -0.04917
H          4.59571       -2.84325       -1.47988
H          4.18344       -5.28949       -1.32708
H          0.69911       -4.51213        1.11662
H          1.13596       -2.11013        0.95163
H          2.90180       -8.70903        1.69005
H          2.62020       -7.16977        2.51448
H          4.73373       -6.22763        1.52993
H          5.04135       -7.74455        0.67807
H         -0.09654       -6.85150        1.28384
H          0.12903       -8.42974        0.50260
H         -0.32210       -7.00894       -0.46881
H          3.78782       -7.73030       -1.63081
H          2.17117       -7.56546       -2.33007
H          2.56272       -8.97875       -1.32129
H          5.16681       -1.02276        0.38750
H          3.92162       -0.80555        1.65298
H          3.67191        1.58612        1.00838
H          4.89523        1.39410       -0.26250
H          6.63087        0.82666        1.43856
H          5.42280        0.88277        2.73460
H          1.13177       -0.56580       -0.39978
H          1.98435        0.74722       -0.72223
