35

C          0.72018       -0.34446        0.06614
C          2.23682       -0.16182        0.19081
C          2.96082       -1.51563        0.11457
C          4.48194       -1.61424        0.12681
C          5.28265       -0.55692        0.75087
C          5.44913       -0.61257        2.31725
F          6.07497       -1.74973        2.70343
F          6.16622        0.42978        2.83485
F          4.23286       -0.58916        2.92859
F          6.60690       -0.48222        0.29123
F          4.76802        0.73445        0.54003
C          5.03540       -2.89042       -0.18405
C          4.17861       -3.99344       -0.53625
C          4.67250       -5.24362       -0.90344
C          6.03930       -5.53283       -0.92722
C          6.89819       -4.48708       -0.53604
C          6.43599       -3.23142       -0.17713
C          8.36838       -4.78097       -0.47980
F          8.69168       -5.65292        0.53518
F          8.82719       -5.38200       -1.62756
F          9.14850       -3.68225       -0.29060
C          3.69453       -6.29640       -1.33630
F          2.52700       -6.27746       -0.62353
F          3.32056       -6.16012       -2.65469
F          4.18778       -7.56725       -1.22580
H          0.19146        0.61962        0.11417
H          0.32656       -0.98074        0.87446
H          0.45121       -0.82553       -0.88771
H          2.45899        0.35226        1.13634
H          2.59545        0.50173       -0.61028
H          2.61796       -1.98434       -0.82700
H          2.52517       -2.15716        0.91465
H          3.09955       -3.87065       -0.50793
H          6.41745       -6.51041       -1.21405
H          7.17039       -2.48768        0.10829
