40

C          0.58825        1.81583        4.04181
C          2.10373        1.88721        4.24241
C          2.88220        0.92645        3.33820
C          4.39709        1.00886        3.54602
C          5.14287        0.01389        2.64543
C          6.68187        0.00714        2.80949
S          7.34396       -1.59257        2.07099
O          6.51728       -1.98544        0.93881
O          8.79105       -1.51589        1.96825
C          7.07688       -3.05727        3.32171
C          7.19674       -4.48058        2.62567
C          8.51028       -4.85197        1.85063
F          9.60337       -4.62430        2.59977
F          8.46873       -6.18124        1.56622
F          8.61685       -4.18971        0.69286
F          7.09651       -5.38998        3.64825
F          6.15210       -4.68743        1.78849
F          7.99924       -3.02435        4.29712
F          5.82786       -3.03780        3.84677
S          7.34604        1.36721        1.67071
O          7.52400        0.82419        0.33147
O          6.52813        2.55594        1.84514
C          9.13881        1.91004        2.21740
F          9.82543        0.99019        2.89026
F          9.78642        2.14845        1.04622
F          9.09956        3.05910        2.89470
C          7.10977        0.24982        4.33737
O          6.79826       -0.69451        5.08504
O          7.60651        1.37307        4.54092
H          0.05552        2.50419        4.71421
H          0.20944        0.80049        4.23464
H          0.31226        2.07838        3.00906
H          2.34912        1.66780        5.29493
H          2.45348        2.91694        4.05914
H          2.63854        1.14463        2.28261
H          2.53583       -0.10663        3.52390
H          4.63786        0.78390        4.59616
H          4.74709        2.03018        3.34754
H          4.88405        0.17219        1.58656
H          4.80143       -1.00180        2.89297
