22

C          2.48590       -1.30483        2.04710
Ga         3.22080       -0.19112        0.52656
C          1.59811        0.77884       -0.38096
F          0.86596        1.62146        0.45687
F          1.94182        1.60242       -1.45585
F          0.62456       -0.07010       -0.92114
C          4.17290       -1.22551       -0.95322
C          5.69982       -1.14634       -0.86410
C          6.43549       -1.81386       -2.02775
N          7.90542       -1.70142       -1.88189
H          2.02148       -0.66012        2.80880
H          3.29319       -1.87047        2.53865
H          1.72773       -2.02634        1.70651
H          4.17178        1.00073        1.04798
H          3.83849       -0.81139       -1.92067
H          3.85044       -2.28165       -0.93839
H          6.06108       -1.59491        0.07789
H          6.00945       -0.08456       -0.82096
H          6.05877       -1.37578       -2.97455
H          6.18227       -2.88745       -2.05389
H          8.14671       -0.71338       -1.76964
H          8.36912       -2.00688       -2.74019
