67

C          8.33521        4.18664        4.19548
C          7.98383        3.14481        3.13079
C          8.60872        3.44037        1.76372
C          8.26487        2.40252        0.69161
C          8.88510        2.69932       -0.67714
C          8.54312        1.65692       -1.74550
C          9.15491        1.95401       -3.12034
C          8.81131        0.90193       -4.18528
Si         9.51491        1.20569       -5.92797
C          8.92329       -0.16310       -7.07421
C          7.60665       -0.65650       -7.00334
C          7.14515       -1.65071       -7.86790
C          7.97264       -2.19598       -8.86253
C          9.29601       -1.71417       -8.93762
C          9.75437       -0.73021       -8.06123
C          7.49131       -3.25333       -9.85097
C          7.25792       -2.70557      -11.24714
C          7.53957       -1.37507      -11.60157
C          7.33654       -0.91701      -12.90709
C          6.84326       -1.76532      -13.90071
C          6.56518       -3.09145      -13.55588
C          6.77062       -3.55670      -12.25560
C          5.99951       -4.03497      -14.58329
F          6.04850       -3.52720      -15.85023
F          6.65043       -5.22942      -14.61441
F          4.68201       -4.32575      -14.34175
C          7.61686        0.51596      -13.26852
F          8.28136        1.19585      -12.29964
F          8.36468        0.62460      -14.40972
F          6.46404        1.22085      -13.51483
C          8.63473       -4.46826       -9.94212
O          8.28865       -5.50746       -9.34851
O          9.65689       -4.15754      -10.58036
S          6.00002       -4.17477       -9.28075
C          8.91585        2.89276       -6.55590
C         11.40681        1.23379       -5.85167
H          7.87059        3.95081        5.16340
H          7.99417        5.18954        3.89719
H          9.42301        4.24245        4.35235
H          6.88772        3.08414        3.02128
H          8.30902        2.14642        3.46908
H          9.70623        3.50301        1.87224
H          8.28208        4.43925        1.42353
H          7.16738        2.33785        0.58649
H          8.59419        1.40477        1.03154
H          9.98261        2.76724       -0.57232
H          8.55234        3.69551       -1.01920
H          7.44592        1.58432       -1.84838
H          8.88023        0.66112       -1.40792
H         10.25081        2.03353       -3.01124
H          8.81365        2.95012       -3.45243
H          7.71412        0.81428       -4.27274
H          9.15791       -0.09313       -3.85615
H          6.91400       -0.26589       -6.25182
H          6.12780       -2.02809       -7.75928
H          9.96005       -2.15352       -9.68415
H         10.79405       -0.40370       -8.15225
H          7.92813       -0.68817      -10.85213
H          6.68665       -1.40853      -14.91715
H          6.54964       -4.59418      -12.00241
H          5.10890       -3.16034       -9.49511
H          7.81783        2.92832       -6.60264
H          9.29424        3.07844       -7.57130
H          9.25708        3.71666       -5.91139
H         11.80587        0.27011       -5.50440
H         11.76182        2.01683       -5.16574
H         11.84327        1.43914       -6.83954
