11

F          0.98513       -0.20200       -0.04136
C          2.33629       -0.06016       -0.08233
C          2.88823        0.41970        1.27675
F          2.62884       -0.65399        2.15278
F          4.28717        0.40845        1.10327
Al         2.22717        2.24474        2.08750
F          2.83961       -1.26907       -0.49380
F          2.62210        0.82957       -1.06967
H          0.61488        2.10888        2.30484
H          3.05400        2.36002        3.48931
H          2.61898        3.41166        1.01501
