38

C          1.37048       -1.63341        3.25954
C          1.91841       -1.06651        1.94226
C          2.84498        0.12647        2.20827
Ta         2.29801        1.99246        3.23510
C          1.25007        3.79353        2.35741
C         -0.27509        3.99620        2.07468
C         -1.30743        3.79125        3.23976
F         -0.92530        4.40665        4.37694
F         -2.50324        4.34414        2.86911
F         -1.55245        2.49772        3.50250
F         -0.49020        5.29222        1.63653
F         -0.68156        3.17435        1.05949
F          1.58235        4.90337        3.17652
F          1.79755        4.10435        1.08742
C          2.86912        1.61586        5.30151
C          4.37856        1.46683        4.97526
C          5.22139        2.56714        5.60470
O          5.84201        2.41938        6.66003
N          5.20660        3.73984        4.90638
C          2.60343       -2.17588        1.12617
H          0.79756       -0.86747        3.80179
H          2.19452       -1.96664        3.91267
H          0.71015       -2.49860        3.08748
H          1.06019       -0.68892        1.36138
H          3.15507        0.57972        1.23767
H          3.78409       -0.25252        2.66991
H          3.53111        3.23391        2.71225
H          0.84298        2.27853        4.17491
H          0.87233        1.47019        2.33603
H          2.45607        0.72204        5.78660
H          2.66841        2.47503        5.95615
H          4.56611        1.52250        3.86809
H          4.77265        0.49156        5.28837
H          4.61771        3.83568        4.07234
H          5.61332        4.56108        5.33776
H          3.46888       -2.58415        1.67441
H          2.97422       -1.78911        0.16497
H          1.91684       -3.01282        0.91452
