23

C          1.36683        0.34729       -0.20596
C          2.76009        0.03917        0.35149
C          3.40545       -1.20793       -0.27252
C          4.79044       -1.54001        0.28585
Ga         5.64855       -3.21178       -0.41574
S          5.71928       -3.02371       -2.84710
O          5.88855       -1.58238       -3.18517
O          6.66398       -3.96830       -3.49388
C          4.08565       -3.47363       -3.53538
Br         4.11490       -5.07854       -0.01307
H          0.92916        1.24753        0.25249
H          0.67522       -0.49040       -0.02496
H          1.40461        0.51108       -1.29414
H          2.69944       -0.09661        1.44582
H          3.42394        0.90619        0.18965
H          3.47905       -1.05330       -1.36303
H          2.73019       -2.06962       -0.12722
H          4.74066       -1.65607        1.38281
H          5.49319       -0.71475        0.08145
H          7.10345       -3.64623       -0.00123
H          3.32265       -2.80617       -3.11730
H          3.87330       -4.51839       -3.28252
H          4.18046       -3.33332       -4.62055
