24

N          1.25147        0.20682       -0.27911
C          0.74791        1.02770        0.77310
C          1.05125        2.56222        0.64372
C          0.54812        3.18193       -0.66376
C         -0.76535        0.78962        0.91693
C          2.64613        0.15367       -0.31437
C          3.13211       -0.77700       -1.43933
C          4.61336       -1.08693       -1.47257
O          5.26158       -1.32326       -2.47776
O          5.23231       -1.13136       -0.25256
H          1.21086        0.74717        1.77185
H          2.14442        2.69700        0.70464
H          0.62909        3.09621        1.51598
H          0.87458        2.55623       -1.50774
H          0.92935        4.20527       -0.80762
H         -0.55153        3.22899       -0.69717
H         -1.27672        1.01396       -0.03209
H         -1.21199        1.40546        1.71606
H         -0.94565       -0.27178        1.13931
H          3.09661       -0.24935        0.69079
H          3.20451        1.13159       -0.43059
H          2.84804       -0.36846       -2.41810
H          2.58221       -1.73029       -1.33191
H          4.54667       -0.85426        0.41291
