70

C          5.75897        0.88389       -3.35895
C          5.65457        0.02516       -2.08901
C          4.25083       -0.51166       -1.80145
Ga         4.05248       -1.69261       -0.14025
C          4.43713       -0.48972        1.49018
C          4.35895        0.90572        1.29750
C          4.58310        1.83793        2.31652
C          4.92591        1.40022        3.59884
C          5.03812        0.02981        3.83427
C          4.78611       -0.89741        2.80076
C          4.85587       -2.35189        3.17533
O          3.99369       -3.17901        3.00270
O          6.02122       -2.71392        3.83357
C          5.36669       -3.23791       -0.29538
C          6.74814       -3.14450       -0.03493
C          7.63036       -4.20677       -0.26526
C          7.17601       -5.43723       -0.78081
C          5.79228       -5.54665       -1.03374
C          4.92176       -4.47993       -0.79291
Si         8.34011       -6.86988       -1.11010
C          8.36645       -8.07922        0.36554
C          9.18870       -9.36116        0.16519
C          9.22381      -10.28587        1.38875
C         10.03014      -11.56793        1.15816
C         10.09436      -12.49435        2.37594
C         10.89933      -13.77387        2.12865
C         10.98058      -14.70217        3.34405
C         11.78699      -15.97543        3.07696
C          7.78890       -7.82331       -2.65631
C         10.10481       -6.23671       -1.40153
H          6.78148        1.26203       -3.52931
H          5.08390        1.75287       -3.29972
H          5.46225        0.30347       -4.24716
H          6.01143        0.62166       -1.23026
H          6.36002       -0.81974       -2.17070
H          3.90739       -1.12434       -2.65471
H          3.53283        0.32759       -1.73491
H          2.56571       -2.27870       -0.07220
H          4.10180        1.27978        0.30222
H          4.48894        2.90792        2.11121
H          5.09652        2.11309        4.40842
H          5.28285       -0.32761        4.83941
H          6.62163       -1.94847        3.78921
H          7.15994       -2.20780        0.35735
H          8.69465       -4.06727       -0.04679
H          5.38357       -6.48204       -1.43249
H          3.85497       -4.61543       -0.99999
H          7.32019       -8.33679        0.60526
H          8.73860       -7.52344        1.24397
H         10.22767       -9.10285       -0.10731
H          8.78830       -9.92851       -0.69319
H          8.19013      -10.54758        1.67551
H          9.64496       -9.73472        2.24789
H         11.05771      -11.30049        0.85284
H          9.59730      -12.12002        0.30477
H          9.06888      -12.76265        2.68567
H         10.53335      -11.94624        3.22827
H         11.92229      -13.50472        1.80992
H         10.45556      -14.32531        1.28051
H          9.95972      -14.97165        3.66372
H         11.42702      -14.15288        4.19024
H         11.34302      -16.56189        2.25835
H         11.83228      -16.62283        3.96432
H         12.82101      -15.73600        2.78577
H          6.78677       -8.25701       -2.52591
H          8.48147       -8.64480       -2.89184
H          7.74733       -7.15333       -3.52690
H         10.49241       -5.70316       -0.52180
H         10.13095       -5.53957       -2.25129
H         10.79469       -7.06484       -1.62189
