26

O          1.24350        0.28184       -0.22039
C          2.45280        0.17667       -0.07907
O          3.42629       -0.00638       -0.87103
C          3.11769        0.29043        1.43971
S          2.68122        2.01379        2.10120
O          2.72210        2.93098        0.97809
O          1.57502        2.00601        3.04040
C          4.26695        2.49972        3.12582
C          3.97037        3.69260        4.09561
F          3.40060        4.72314        3.44159
F          3.17251        3.32133        5.10905
F          5.14064        4.13455        4.62955
F          4.71426        1.46843        3.87113
F          5.23994        2.89909        2.27301
S          2.45027       -0.99491        2.65933
O          3.21972       -0.97632        3.89256
O          1.00382       -1.01197        2.67693
C          2.89756       -2.70591        1.81918
C          4.34041       -3.28758        1.97142
F          5.25886       -2.54565        1.33918
F          4.68579       -3.41183        3.26488
F          4.36275       -4.53329        1.41734
F          2.06374       -3.57599        2.45392
F          2.58348       -2.68029        0.50717
O          4.45591        0.17031        1.29527
H          4.43655        0.05412        0.23965
