72

C          3.77770        2.05238        0.31037
C          2.91169        1.89806       -0.94627
C          2.76097        0.39614       -1.32034
C          2.04701        0.09239       -2.62505
C          0.62086       -0.10134       -2.60910
C         -0.22159        0.12225       -3.75255
C         -1.59844       -0.02183       -3.71364
C         -2.29919       -0.40693       -2.53953
C         -1.48418       -0.61334       -1.39861
C         -0.10577       -0.45949       -1.42354
Si        -4.13668       -0.65007       -2.52325
C         -4.62156       -2.34801       -3.27130
C         -3.89486       -3.52522       -2.61359
C         -4.24343       -4.87429       -3.19907
F         -3.95217       -4.96786       -4.52772
F         -3.56454       -5.88874       -2.58038
F         -5.57404       -5.17461       -3.07347
C         -4.82332       -0.59352       -0.75456
C         -5.04205        0.64504       -3.57193
C          2.85591        0.00515       -3.80719
C          4.20759        0.49796       -3.84346
C          5.01834        0.39121       -4.96332
C          4.58899       -0.22518       -6.16538
C          3.27462       -0.76225       -6.12801
C          2.45269       -0.65744       -5.01781
Si         5.70895       -0.37268       -7.63411
C          7.09491       -1.66071       -7.31381
C          6.55639       -3.01092       -6.82998
C          7.62479       -4.04781       -6.57215
F          8.51778       -3.66401       -5.61445
F          7.09199       -5.23558       -6.15159
F          8.36048       -4.33556       -7.69138
C          4.75873       -0.92804       -9.17964
C          6.60781        1.25216       -8.02476
C          1.56085        2.59879       -0.76575
H          4.76723        1.58832        0.17664
H          3.29714        1.56432        1.17480
H          3.93176        3.11144        0.57045
H          3.43168        2.39714       -1.78284
H          2.25690       -0.09694       -0.47191
H          3.77391       -0.04319       -1.34062
H          0.23368        0.47956       -4.67587
H         -2.15784        0.20023       -4.62930
H         -1.94626       -0.90292       -0.44898
H          0.43760       -0.63831       -0.49514
H         -4.37684       -2.32059       -4.34522
H         -5.71332       -2.48255       -3.19798
H         -4.12258       -3.59136       -1.53838
H         -2.80420       -3.40645       -2.70285
H         -4.36603       -1.35655       -0.10801
H         -5.91095       -0.76023       -0.75053
H         -4.62713        0.38520       -0.29386
H         -4.66990        0.64830       -4.60671
H         -4.88878        1.65381       -3.16288
H         -6.12433        0.44872       -3.60594
H          4.61836        1.00050       -2.96737
H          6.02698        0.81619       -4.90248
H          2.88465       -1.29665       -7.00058
H          1.47846       -1.14393       -5.05238
H          7.77343       -1.24299       -6.55260
H          7.69141       -1.79214       -8.23160
H          5.86875       -3.45897       -7.56392
H          5.98879       -2.88975       -5.89495
H          4.26405       -1.89936       -9.03454
H          5.43644       -1.02330      -10.04120
H          3.97811       -0.19926       -9.44037
H          7.14685        1.62601       -7.14220
H          5.89135        2.02894       -8.32729
H          7.33973        1.12426       -8.83692
H          1.00076        2.16393        0.07765
H          0.93810        2.49418       -1.66356
H          1.69875        3.67246       -0.56097
