21

I          3.64908        2.05577       -0.98478
B          3.32727        0.03238        0.15129
C          1.74072       -0.21090        0.46144
C          0.72450       -0.55074       -0.66693
F          1.10517       -1.66432       -1.35357
F         -0.52277       -0.80990       -0.17282
F          0.59231        0.45217       -1.56026
F          1.64288       -1.32522        1.32158
F          1.15088        0.83698        1.15808
C          4.04444       -1.16431       -0.67036
C          5.57538       -1.09944       -0.63768
C          6.35697       -2.20883       -1.32767
O          7.56241       -2.39979       -1.14373
N          5.64337       -2.98540       -2.20271
H          3.82832        0.23899        1.23912
H          3.68963       -1.16619       -1.71682
H          3.71498       -2.11965       -0.22009
H          5.94089       -1.06801        0.40014
H          5.91518       -0.15089       -1.09051
H          4.64192       -2.87224       -2.29859
H          6.11885       -3.74680       -2.66968
