22

C          1.11405        0.56445        0.29888
C          2.61420        0.32715        0.09493
C          2.96991       -0.42489       -1.19108
Sb         2.61643        0.76467       -3.07341
Br         2.29487        2.25310       -5.52473
C          0.47095        0.19017       -3.33784
C          4.41021       -0.93160       -1.18070
H          0.91316        1.04984        1.26641
H          0.55727       -0.38558        0.27727
H          0.70201        1.20905       -0.48916
H          3.00745       -0.23505        0.96747
H          3.13859        1.30016        0.11034
H          2.28619       -1.28505       -1.30628
H          2.12306        2.26497       -2.21795
H          4.28599        1.35784       -3.14563
H          3.07417       -0.65205       -4.07918
H         -0.16630        1.04053       -3.06376
H          0.25993       -0.67539       -2.69220
H          0.32781       -0.06853       -4.39257
H          5.12744       -0.09853       -1.10365
H          4.64941       -1.48076       -2.10409
H          4.60189       -1.60977       -0.32748
