52

C          9.39574       -3.23673        0.27762
C          8.19282       -3.37382        1.21630
C          7.61452       -2.02928        1.68508
C          6.41652       -2.13580        2.63829
Al         5.68874       -0.37982        3.32827
C          4.26162       -0.74641        4.73770
C          4.37350       -0.21329        6.04087
C          3.44965       -0.48124        7.05248
C          2.35200       -1.31602        6.78850
C          2.19951       -1.86362        5.50572
C          3.14144       -1.57697        4.51475
C          1.37383       -1.62887        7.88027
C          0.33044       -0.51092        8.26785
C         -0.68141        0.03259        7.18843
C         -1.80584       -0.89614        6.56509
C         -2.81809       -1.60944        7.53870
C         -4.13405       -2.12390        6.83887
F         -3.85371       -2.86236        5.74988
F         -4.80815       -2.89776        7.71726
F         -4.93575       -1.10520        6.48185
F         -2.22088       -2.68890        8.09734
F         -3.20991       -0.75734        8.52263
F         -2.53709       -0.07140        5.75557
F         -1.22810       -1.84045        5.78678
F         -1.33219        1.08427        7.77091
F          0.02126        0.50976        6.13231
F         -0.41741       -0.94516        9.32940
F          1.03011        0.58406        8.68277
F          0.63560       -2.76024        7.60682
F          2.03153       -1.87260        9.07600
C          4.90205        0.76597        1.82281
O          3.86161        0.01406        1.05147
C          3.24073        0.66783        0.08785
F          4.06897        1.14505       -0.90695
F          2.34982       -0.16603       -0.51775
F          2.52460        1.76729        0.51022
H          9.78976       -4.21535       -0.03725
H         10.21639       -2.68795        0.76586
H          9.12584       -2.67733       -0.63167
H          8.48019       -3.96443        2.10375
H          7.39483       -3.95034        0.71693
H          7.33198       -1.44383        0.79027
H          8.42474       -1.45163        2.16800
H          6.70510       -2.74832        3.51418
H          5.60541       -2.70229        2.14208
H          6.83849        0.57027        4.02031
H          5.22666        0.43077        6.27636
H          3.58499       -0.06064        8.05066
H          1.35605       -2.52114        5.29155
H          2.99415       -2.02832        3.52876
H          5.66866        1.08103        1.09515
H          4.41835        1.67922        2.20697
