21

O          0.99757        0.50715       -0.00895
C          2.18039        0.14348       -0.05543
O          2.80473       -0.72015       -0.70077
C          3.16917        0.94614        0.99380
S          3.07289        2.79992        0.92934
O          1.80885        3.31133        1.41806
O          4.33836        3.35705        1.38651
C          3.08406        3.19111       -0.95249
F          4.10473        2.58590       -1.58617
F          1.93783        2.87425       -1.56028
F          3.26130        4.53319       -1.04781
S          2.59791        0.44338        2.80948
O          3.07007       -0.92825        2.96049
O          3.01496        1.45697        3.77387
C          0.68572        0.28324        3.06299
F          0.01037        1.37651        2.71683
F          0.19113       -0.78956        2.43972
F          0.53555        0.09597        4.40374
N          4.47971        0.54795        0.82162
H          4.50494       -0.35896        0.34469
H          5.17095        0.75800        1.53428
