11

F          1.37823        0.66844       -0.69015
B          2.31000       -0.02022        0.05934
S          3.31982        1.22127        1.19562
O          2.39857        1.94512        2.05766
O          4.53026        0.66794        1.77300
F          3.84661        2.36921        0.12690
S          3.49208       -1.00041       -1.18316
O          2.68883       -1.94560       -1.94409
O          4.51447       -0.23855       -1.87701
F          4.32879       -1.95053       -0.11952
H          1.90813       -0.85428        0.84084
