45

C          1.12672        2.34098        1.00439
C          2.65458        2.30671        0.84059
C          3.06358        2.14569       -0.63762
Ta         2.44662        3.26876       -2.41010
C          0.77613        2.02169       -3.19324
C          0.21597        0.88087       -2.55382
C         -0.83273        0.14774       -3.10258
C         -1.40008        0.50589       -4.33961
C         -0.88841        1.61445       -5.00451
C          0.17083        2.35258       -4.44228
C          0.76100        3.53189       -5.06795
O          1.69815        4.13792       -4.54994
O          0.27445        4.00779       -6.25919
C          2.92762        5.37981       -1.72158
C          4.27229        5.69642       -1.40324
C          4.64117        6.82468       -0.66055
C          3.67976        7.74466       -0.21927
C          2.34204        7.48695       -0.55517
C          1.98613        6.34075       -1.27585
C          4.06892        8.97510        0.56585
C          3.28519        3.55062        1.48062
H          0.65536        1.43531        0.59515
H          0.70114        3.20389        0.46892
H          0.84186        2.41927        2.06662
H          3.02158        1.43151        1.41538
H          2.83406        1.11290       -0.98058
H          4.17092        2.22606       -0.73243
H          0.86002        4.08341       -2.23208
H          3.87902        3.80809       -3.31036
H          3.02673        2.07457       -3.63839
H          0.61925        0.55206       -1.59195
H         -1.22315       -0.72266       -2.56660
H         -2.22160       -0.07154       -4.76597
H         -1.33002        1.88872       -5.97222
H         -0.46366        3.43217       -6.52420
H          5.06630        5.02489       -1.74598
H          5.69678        7.00021       -0.42252
H          1.56510        8.18952       -0.23199
H          0.92792        6.17230       -1.49290
H          5.09033        8.88697        0.96404
H          3.38815        9.14479        1.41439
H          4.03681        9.88457       -0.05750
H          2.95045        4.46932        0.97848
H          4.38282        3.52152        1.40976
H          3.01566        3.62099        2.54721
