98

N          2.65588       -0.61584       -1.55330
C          2.10584        0.72365       -1.36626
Sb         3.12993        2.27065       -2.69508
C          2.93190        3.94268       -1.12643
C          3.92705        4.92799       -1.05240
C          3.90479        5.92378       -0.07149
C          2.87344        5.98376        0.89115
C          1.87173        4.99619        0.81616
C          1.90539        4.00002       -0.17089
Si         2.85050        7.38294        2.14634
C          2.90393        9.00679        1.15560
C          2.95028       10.34433        1.90834
C          3.07801       11.53744        0.95258
C          3.09352       12.91545        1.61985
C          3.26535       14.05185        0.60640
C          3.22623       15.45810        1.20883
C          3.41477       16.56522        0.16669
C          3.34257       17.97661        0.75206
C          1.29051        7.32709        3.22196
C          4.35729        7.31004        3.29753
C          5.16173        1.69843       -1.65369
C          6.25137        1.29723       -2.44217
C          7.52102        1.07902       -1.89632
C          7.76487        1.25899       -0.51606
C          6.66721        1.63737        0.28347
C          5.39915        1.84436       -0.27695
Si         9.49735        1.06536        0.17413
C         10.69984        2.03548       -0.95054
C         10.40027        3.54019       -1.01291
C         11.16094        4.23988       -2.12578
C         10.92341        5.78582       -2.28441
C         11.41781        6.78345       -1.16596
C         12.95731        6.98059       -0.83578
C         13.92861        7.36874       -2.01175
C         15.33346        7.91214       -1.54612
F         15.92522        7.06067       -0.68733
F         16.12098        8.03711       -2.63451
F         15.23011        9.11847       -0.96282
F         14.16417        6.27889       -2.77942
F         13.36569        8.34261       -2.77360
F         12.99480        7.99768        0.07668
F         13.43120        5.86461       -0.23150
F         10.93431        8.00847       -1.50742
F         10.84454        6.42390        0.01854
F         11.48406        6.20446       -3.45638
F          9.57788        5.98583       -2.36990
F         12.52285        4.04891       -2.00835
F         10.80263        3.71332       -3.34514
C          9.62631        1.73929        1.93987
C         10.09541       -0.73192        0.16790
H          3.62659       -0.61254       -1.22605
H          2.73019       -0.79649       -2.56243
H          2.21404        1.02392       -0.31464
H          1.03658        0.73553       -1.63150
H          3.42650        0.89704       -3.86007
H          4.09151        3.38857       -3.69693
H          1.58540        2.77447       -3.48902
H          4.74807        4.91174       -1.77914
H          4.70979        6.66797       -0.05533
H          1.04807        5.00122        1.53823
H          1.10347        3.25438       -0.18528
H          2.03277        8.99386        0.47704
H          3.78204        8.93373        0.48944
H          3.79857       10.35679        2.61520
H          2.04157       10.46607        2.52396
H          2.24756       11.49946        0.22565
H          3.99979       11.41346        0.35721
H          3.90804       12.95981        2.36453
H          2.15574       13.06339        2.18439
H          2.47670       13.96862       -0.16243
H          4.22077       13.91298        0.07023
H          4.00734       15.55046        1.98438
H          2.26340       15.60762        1.72923
H          2.64860       16.45311       -0.61930
H          4.38557       16.42336       -0.33782
H          2.36747       18.15978        1.22818
H          3.48439       18.74383       -0.02251
H          4.11736       18.12984        1.51844
H          0.37587        7.38294        2.61477
H          1.27738        8.16845        3.93078
H          1.24643        6.39886        3.80986
H          5.29573        7.32161        2.72485
H          4.34516        6.38510        3.89196
H          4.37552        8.16015        3.99633
H          6.10821        1.16470       -3.52188
H          8.33932        0.77695       -2.56106
H          6.80480        1.79252        1.35916
H          4.58506        2.16195        0.38337
H         10.61546        1.59848       -1.95795
H         11.73681        1.86540       -0.62110
H         10.65136        4.02762       -0.06100
H          9.32943        3.71830       -1.19620
H          9.30820        2.78943        2.00447
H         10.66362        1.67529        2.30156
H          8.99762        1.16270        2.63333
H         10.03263       -1.16504       -0.84044
H          9.47472       -1.34955        0.83252
H         11.13931       -0.80833        0.50804
