37

O          1.53713       -0.69508        1.37744
Al         1.96945        0.19346       -0.09262
C          0.29515        1.11200       -0.92694
F         -0.70149        0.22362       -1.33806
F         -0.38168        2.01904       -0.11936
F          0.58291        1.84549       -2.08382
C          3.20128        1.67902        0.50245
C          3.63947        1.75449        1.84209
C          4.49521        2.75944        2.29632
C          4.94785        3.74482        1.40414
C          4.53258        3.70416        0.06451
C          3.67667        2.68651       -0.36246
C          5.84619        4.83878        1.89674
C          7.36824        4.48853        2.11904
C          8.25742        4.01842        0.90549
C          8.59037        4.98851       -0.30480
C          9.26523        6.37739        0.00572
C          9.94291        7.05939       -1.24400
F          9.10013        7.11100       -2.29153
F         10.28286        8.32274       -0.90780
F         11.06261        6.41291       -1.61475
F          8.33019        7.24078        0.46645
F         10.23928        6.23104        0.94268
F          9.46072        4.28644       -1.09294
F          7.46582        5.21224       -1.02342
F          9.46016        3.64505        1.43723
F          7.68998        2.92216        0.34521
F          8.00066        5.56916        2.67414
F          7.43223        3.46989        3.02349
F          5.82700        5.93921        1.06653
F          5.44207        5.28363        3.14501
H          1.11351       -1.55291        1.25971
H          2.59505       -0.72169       -1.28587
H          3.28739        1.00270        2.55415
H          4.79994        2.79432        3.34370
H          4.86573        4.47374       -0.63281
H          3.35987        2.69073       -1.40991
