57

C          1.47769        2.71245        1.93504
C          2.97495        2.65771        1.61471
C          3.29038        2.74047        0.11589
C          4.78824        2.63402       -0.23076
C          5.10929        2.61044       -1.73000
In         7.28130        2.26037       -2.33434
C          8.27809        0.91850       -0.79044
C          7.45219       -0.27995       -0.31587
C          8.16844       -1.24758        0.64546
C          7.27917       -2.39468        1.14116
C          8.00891       -3.45022        1.97848
C          7.09418       -4.57724        2.46772
C          8.37383        4.26376       -2.32299
C          8.36031        5.07897       -1.02464
C          9.09719        6.42860       -1.13484
C          9.08959        7.28849        0.13215
N          9.77089        8.55745       -0.11681
C          9.92753        9.53262        0.84612
N          9.64108        9.47346        2.10456
N         10.47170       10.72514        0.32620
H          1.28357        2.64021        3.01633
H          0.93906        1.88639        1.44485
H          1.02764        3.65172        1.57778
H          3.40014        1.72275        2.01903
H          3.49348        3.47601        2.14384
H          2.88678        3.68502       -0.29296
H          2.75035        1.93182       -0.41010
H          5.17909        1.72126        0.25363
H          5.32052        3.47022        0.25993
H          4.78294        3.55907       -2.19376
H          4.51553        1.81621       -2.21676
H          7.36837        1.54486       -3.97929
H          8.55595        1.54317        0.07804
H          9.22796        0.56626       -1.23096
H          7.10110       -0.86617       -1.18551
H          6.53238        0.07578        0.18245
H          8.55459       -0.68003        1.51164
H          9.05702       -1.66403        0.13691
H          6.81125       -2.89002        0.27094
H          6.44335       -1.97720        1.73150
H          8.48900       -2.96319        2.84469
H          8.83108       -3.87792        1.37933
H          6.29296       -4.18618        3.11336
H          7.64620       -5.33596        3.04255
H          6.61010       -5.08766        1.62069
H          7.93402        4.86896       -3.13640
H          9.42019        4.06845       -2.61968
H          8.81650        4.49590       -0.20372
H          7.31949        5.27372       -0.70717
H          8.63633        7.00792       -1.95674
H         10.14327        6.24618       -1.43415
H          9.61327        6.76493        0.94947
H          8.04843        7.45718        0.46983
H          9.68690        8.90005       -1.06983
H          9.13926        8.60878        2.32257
H         11.25683       10.57332       -0.30355
H         10.72455       11.34822        1.08932
