49

C          4.26772        0.39739        3.17071
C          4.01148        0.24881        1.66894
C          4.69742        1.33219        0.83032
C          4.45948        1.12644       -0.67217
C          5.00291        2.27614       -1.53781
S          4.80298        1.79630       -3.30730
O          5.68621        2.58585       -4.15574
O          4.78267        0.34026       -3.45232
C          3.03495        2.31410       -3.86929
C          2.66504        1.96224       -5.36632
C          2.54145        0.47313       -5.88662
C          1.62203       -0.53424       -5.10669
F          0.39495       -0.01186       -4.90406
F          1.47898       -1.64866       -5.86770
F          2.14493       -0.89938       -3.93341
F          1.99797        0.57674       -7.14251
F          3.76326       -0.08460       -6.01489
F          1.43666        2.53234       -5.57961
F          3.55257        2.56605       -6.19655
F          2.10008        1.73081       -3.07476
F          2.92110        3.65584       -3.78856
C          4.17108        3.69333       -1.21914
O          3.01907        3.49789       -0.78492
O          4.83408        4.72586       -1.42117
C          6.50857        2.56628       -1.37803
C          7.48030        1.39341       -1.56885
C          8.92305        1.87489       -1.36350
C          9.95476        0.77673       -1.50728
C         11.42757        1.23662       -1.27868
F         11.76957        2.21031       -2.15427
F         11.58822        1.72662       -0.02555
F         12.29402        0.21225       -1.43653
F          9.73497       -0.24350       -0.60498
F          9.92199        0.21336       -2.76193
H          3.75244       -0.38245        3.75095
H          3.91586        1.37402        3.53584
H          5.34248        0.32835        3.39960
H          2.92697        0.28317        1.47360
H          4.35151       -0.74653        1.33386
H          5.77840        1.32517        1.05547
H          4.31011        2.32034        1.12248
H          3.37466        1.07338       -0.83814
H          4.89280        0.16378       -0.98633
H          6.61859        2.97731       -0.36169
H          6.75752        3.39586       -2.05167
H          7.38173        0.96870       -2.57788
H          7.25849        0.58318       -0.85823
H          9.04406        2.31465       -0.36112
H          9.16799        2.66117       -2.09348
