17

N          1.44566       -0.43271        0.70437
C          2.61607       -0.03070       -0.10162
N          3.65583        0.69393        0.62201
S          4.98808       -0.02683        0.94450
O          5.36780       -1.15539        0.08030
O          6.03451        0.92067        1.32261
C          4.76489       -0.98881        2.60453
C          4.38485       -0.17999        3.87885
F          3.21465        0.47620        3.73255
F          4.23159       -1.02503        4.94980
F          5.33441        0.71164        4.21910
F          3.76602       -1.93415        2.44863
F          5.91160       -1.67619        2.91599
H          1.16595        0.38456        1.25451
H          1.76599       -1.10977        1.40117
H          2.23686        0.64423       -0.88863
H          3.00502       -0.93526       -0.59978
