31

C          3.82823        2.15584       -0.57036
Nb         3.48709        0.03972       -0.15975
S          4.03763        0.03698       -2.57562
O          3.03435        0.75540       -3.39639
O          5.46045        0.41261       -2.76492
C          4.01425       -1.69056       -3.43886
F          4.90268       -2.56527       -2.90794
F          2.79397       -2.27758       -3.41135
F          4.35078       -1.51910       -4.74466
C          4.68656       -0.59096        1.55400
C          6.20394       -0.74700        1.50672
C          6.79891       -1.13723        2.87585
C          8.30573       -1.28984        2.87372
C          8.91930       -1.70213        4.24724
F          8.62825       -0.78323        5.19997
F          8.42401       -2.89492        4.65639
F         10.26390       -1.81401        4.17840
F          8.71685       -2.24768        1.97464
F          8.93023       -0.11244        2.52005
H          3.18367        2.59838       -1.34231
H          4.87329        2.41146       -0.80016
H          3.55625        2.58735        0.41718
H          2.47148       -1.07910       -1.05174
H          4.42549       -1.34020       -0.69127
H          1.84227       -0.15648        0.54114
H          4.20153       -1.53886        1.85984
H          4.39402        0.17227        2.31428
H          6.67650        0.18816        1.16865
H          6.46536       -1.51113        0.76147
H          6.36712       -2.09148        3.21425
H          6.54455       -0.37941        3.63253
