17

F          0.85417       -0.36856        0.41328
B          2.21512        0.06938        0.07351
C          3.18736       -0.09522        1.39433
C          4.69750        0.05541        1.14255
C          5.06037        1.46901        0.66063
C          5.54820       -0.32265        2.36728
H          2.66308       -0.64754       -0.85439
H          2.16797        1.25476       -0.32370
H          3.01154       -1.10450        1.81992
H          2.89214        0.61828        2.19429
H          4.96082       -0.64324        0.32442
H          4.79093        2.21877        1.42467
H          4.50241        1.72021       -0.25054
H          6.14112        1.56875        0.45870
H          5.31516        0.33845        3.21976
H          6.63228       -0.24008        2.16839
H          5.33894       -1.35485        2.68849
