66

C          8.91661       -1.31535        5.47800
C          8.37837       -0.99378        4.08142
C          8.92474       -1.92573        2.99516
C          8.40112       -1.62035        1.58820
C          8.97034       -2.54848        0.51036
C          8.47255       -2.24394       -0.90642
C          9.05970       -3.18163       -1.96860
C          8.59600       -2.88436       -3.40275
Si         9.20787       -4.14463       -4.69738
C          8.58090       -5.84418       -4.21474
C          7.19528       -6.06763       -4.06588
C          6.70099       -7.28971       -3.59806
C          7.54171       -8.36777       -3.24644
C          8.92201       -8.13709       -3.42408
C          9.43332       -6.91803       -3.88972
In         6.74641      -10.34166       -2.44279
C          5.18359      -11.14858       -3.92203
C          5.13240      -10.45393       -5.29048
C          6.39036      -10.59663       -6.15793
C          5.25684      -12.67309       -4.06498
C          8.55249      -11.69420       -2.27525
C          9.19466      -12.15209       -3.59219
C          8.54120       -3.59887       -6.38856
C         11.10331       -4.10093       -4.75034
H          8.51628       -0.62801        6.23734
H         10.01449       -1.24156        5.50670
H          8.64865       -2.33899        5.78020
H          8.62653        0.04995        3.82213
H          7.27654       -1.05001        4.08858
H          8.67768       -2.96989        3.25616
H         10.02807       -1.86928        2.99273
H          8.63915       -0.57237        1.33079
H          7.29894       -1.69023        1.58574
H          8.72278       -3.59418        0.76267
H         10.07337       -2.48770        0.52674
H          8.71641       -1.19725       -1.16475
H          7.37080       -2.31555       -0.93229
H          8.79715       -4.22174       -1.71184
H         10.16165       -3.12856       -1.91734
H          8.90788       -1.86807       -3.70460
H          7.49188       -2.88699       -3.44095
H          6.48552       -5.26701       -4.30886
H          5.61540       -7.39720       -3.49488
H          9.63510       -8.93265       -3.18057
H         10.51783       -6.80025       -3.99261
H          5.95950      -10.06514       -0.85844
H          4.23562      -10.91043       -3.40724
H          4.93184       -9.37866       -5.14885
H          4.27104      -10.84680       -5.87946
H          7.27224      -10.19371       -5.63890
H          6.28116      -10.05321       -7.11007
H          6.59763      -11.64944       -6.40361
H          6.20695      -13.00726       -4.51091
H          4.44649      -13.07635       -4.71237
H          5.17655      -13.17833       -3.08994
H          8.25194      -12.57329       -1.68070
H          9.29805      -11.16001       -1.66136
H          8.49450      -12.74594       -4.20071
H         10.09832      -12.77801       -3.45018
H          9.49860      -11.29972       -4.22169
H          7.44351       -3.65835       -6.41407
H          8.92544       -4.24475       -7.19100
H          8.82884       -2.56109       -6.61710
H         11.53961       -4.40643       -3.78916
H         11.45979       -3.08401       -4.97367
H         11.49962       -4.77376       -5.52418
