48

N          1.14427        0.40574       -0.30064
N          2.39963       -0.06869        0.22149
C          2.99057       -0.96281       -0.56242
C          4.26103       -1.51188       -0.13959
C          4.90991       -2.49287       -0.85210
C          4.39435       -3.03834       -2.07356
C          3.16942       -2.47752       -2.51435
C          2.48768       -1.49019       -1.81802
Si         5.31072       -4.35560       -2.96851
C          7.13941       -3.86090       -3.25155
C          7.33690       -2.54792       -4.01981
C          8.80472       -2.12661       -4.16862
C          9.00769       -0.83013       -4.95998
C         10.47879       -0.43494       -5.12628
C         10.69658        0.84341       -5.94214
C         12.17226        1.21969       -6.11651
C         12.38931        2.49394       -6.93733
C          5.39536       -6.00141       -2.00668
C          4.53855       -4.74094       -4.66439
H          0.67528        0.82627        0.50409
H          0.55117       -0.39782       -0.57481
H          4.68604       -1.12201        0.78926
H          5.86375       -2.86617       -0.45870
H          2.73341       -2.82370       -3.45902
H          1.58018       -1.06851       -2.25280
H          7.66146       -4.68968       -3.76516
H          7.61323       -3.77908       -2.25648
H          6.77259       -1.74771       -3.51178
H          6.88930       -2.63423       -5.02635
H          9.37035       -2.94174       -4.65688
H          9.24937       -2.01414       -3.16337
H          8.46035       -0.01017       -4.46311
H          8.54533       -0.93728       -5.95780
H         11.02584       -1.26720       -5.60544
H         10.93733       -0.31150       -4.12876
H         10.16101        1.68093       -5.46082
H         10.23201        0.72450       -6.93759
H         12.70510        0.37935       -6.59424
H         12.63453        1.33998       -5.12169
H         11.97012        2.39204       -7.95005
H         13.45758        2.73281       -7.04294
H         11.89988        3.36005       -6.46675
H          5.81719       -5.83135       -1.00487
H          6.01518       -6.75662       -2.51618
H          4.38565       -6.41563       -1.87054
H          4.49738       -3.84420       -5.29892
H          3.51174       -5.11845       -4.55388
H          5.12610       -5.50754       -5.19192
