63

C          0.47983        0.24813        0.37581
C          2.01000        0.27146        0.34126
C          2.65576       -0.78232        1.24690
C          4.18692       -0.76328        1.21692
C          4.84275       -1.82589        2.10482
C          6.37387       -1.80351        2.05313
C          7.04799       -2.89653        2.89236
C          8.58012       -2.88607        2.80070
Si         9.48241       -4.24815        3.79673
C          9.17200       -4.11373        5.61417
C          8.75345       -5.20551        6.41660
C          8.60547       -5.11788        7.79216
C          8.86905       -3.90335        8.52658
C          9.27076       -2.79460        7.69746
C          9.41553       -2.90531        6.32759
C          8.73693       -3.82089        9.93108
C          8.21077       -4.96423       10.75676
C          9.30696       -5.91389       11.29341
C          8.71007       -7.10054       12.06373
C          9.74462       -8.02984       12.65699
C          9.16300       -9.28855       13.37119
F          8.33026       -8.93027       14.37927
F          8.45762      -10.05245       12.50253
F         10.14014      -10.06042       13.89890
F         10.60629       -8.51379       11.69594
F         10.51831       -7.38627       13.60085
S          9.25379       -2.39825       10.81720
C          8.93062       -5.93997        3.12750
C         11.32679       -4.04516        3.36365
H          0.04593        1.01415       -0.28298
H          0.10325        0.43082        1.39355
H          0.09064       -0.72932        0.05256
H          2.37015        1.27160        0.63680
H          2.35797        0.11949       -0.69485
H          2.29721       -1.78425        0.95027
H          2.30808       -0.63293        2.28441
H          4.54355        0.23657        1.52222
H          4.53029       -0.90028        0.17568
H          4.48349       -2.82519        1.80015
H          4.50925       -1.69042        3.14841
H          6.73628       -0.81531        2.38847
H          6.70136       -1.90358        1.00210
H          6.66164       -3.87877        2.56657
H          6.74630       -2.79154        3.94798
H          8.96139       -1.90928        3.14967
H          8.89321       -2.96748        1.74305
H          8.54368       -6.17114        5.94356
H          8.29792       -6.01624        8.33195
H          9.47567       -1.84119        8.18766
H          9.73395       -2.01076        5.77794
H          7.48682       -5.56390       10.17085
H          7.64846       -4.57062       11.62318
H          9.97839       -5.33821       11.94764
H          9.90958       -6.28002       10.45005
H          8.06557       -7.69858       11.39973
H          8.07629       -6.74275       12.89108
H          8.12075       -1.60365       10.86409
H          7.86156       -6.12204        3.30775
H          9.49126       -6.75356        3.61049
H          9.10972       -6.00776        2.04367
H         11.70645       -3.08349        3.74019
H         11.50809       -4.08024        2.27770
H         11.92257       -4.83805        3.83888
