28

N          1.35774        0.43743       -0.43512
Ga         3.17140        0.81372       -0.75940
S          4.38282        0.46550        1.44819
O          3.73874       -0.59635        2.24906
O          5.85684        0.46640        1.37683
C          4.12498        2.07384        2.58922
C          2.68170        2.52309        2.91205
F          1.98559        1.56294        3.54722
F          2.67303        3.63008        3.71183
F          2.02141        2.85053        1.77388
F          4.75065        1.81267        3.77226
F          4.75441        3.13229        1.99518
C          3.98873       -0.61184       -2.05339
C          4.52616       -2.01964       -1.64948
C          3.45651       -3.04534       -1.13538
C          4.03838       -4.32222       -0.42179
F          4.94015       -4.95419       -1.20449
F          4.61369       -4.02677        0.75053
F          3.02042       -5.18726       -0.18399
F          2.62709       -2.44533       -0.24097
F          2.71134       -3.49271       -2.18471
F          5.14539       -2.61569       -2.72438
F          5.46619       -1.85946       -0.67547
F          3.05315       -0.84362       -3.06569
F          5.07959       -0.01663       -2.68464
H          0.92393        1.13664        0.16762
H          1.21531       -0.46304        0.02258
H          3.57546        2.25969       -1.19124
