23

C          1.13584       -0.13417       -1.92780
C          1.69134       -0.20255       -0.49953
C          1.59970       -1.66383        0.05509
C          2.07796       -1.99697        1.43505
C          1.15924       -1.82427        2.61905
C          1.02390       -0.37729        3.06681
O          1.71534        0.21060        3.87926
O          0.03090        0.34873        2.40610
S          3.68600       -2.53538        1.70809
C          3.12314        0.33420       -0.42403
H          0.09871       -0.50577       -1.96894
H          1.73610       -0.76158       -2.60918
H          1.14227        0.89271       -2.32753
H          1.06630        0.44531        0.13826
H          2.14855       -2.29796       -0.67237
H          0.52113       -1.95218       -0.03295
H          1.55058       -2.38530        3.48201
H          0.13029       -2.20511        2.38091
H         -0.41289       -0.27722        1.80258
H          4.52938       -1.41687        1.89833
H          3.81408       -0.30453       -0.99905
H          3.47452        0.33822        0.61637
H          3.19209        1.36059       -0.82125
