31

S          1.40354        0.62814       -0.10226
C          3.18297        0.13502        0.04482
C          3.29163       -1.29161        0.59882
C          4.74082       -1.75691        0.74718
In         5.04200       -3.80717        1.65680
C          7.29481       -3.77102        2.00207
C          8.08996       -4.92394        1.90065
C          9.48446       -4.89632        2.08562
C         10.13956       -3.69942        2.36802
C          9.37383       -2.53163        2.46485
C          7.98406       -2.57356        2.28853
C         10.09006       -1.24943        2.78035
F         10.64149       -1.25538        4.03936
F         11.13902       -1.01268        1.92649
F          9.29105       -0.15252        2.71975
C         10.26900       -6.17062        1.95886
F          9.78329       -7.16486        2.76280
F         10.24480       -6.67550        0.68533
F         11.58891       -6.02691        2.28376
H          1.60207        1.87057       -0.60250
H          3.68787        0.84531        0.71447
H          3.64579        0.19811       -0.94996
H          2.73527       -1.97145       -0.06926
H          2.77447       -1.33058        1.57310
H          5.29271       -1.04753        1.38938
H          5.24877       -1.75010       -0.23222
H          4.20415       -3.91543        3.21963
H          4.72810       -5.14482        0.53041
H          7.61934       -5.88322        1.66630
H         11.21930       -3.67482        2.50847
H          7.43053       -1.63557        2.37198
