30

O          1.92163        1.23460        0.83642
Ga         3.58703        0.53548        0.64668
S          3.10550       -1.71141        1.57660
O          1.63585       -1.84423        1.57172
O          3.91880       -2.84135        1.11041
C          3.58575       -1.70376        3.48012
C          2.72649       -0.81548        4.41161
F          1.46691       -1.27358        4.51084
F          3.25165       -0.78040        5.67004
F          2.69628        0.45266        3.94727
F          3.52698       -2.98226        3.93327
F          4.87957       -1.26875        3.56527
S          3.67262       -0.13699       -1.72857
O          3.13595       -1.47406       -2.00675
O          3.19887        0.98726       -2.55184
C          5.56334       -0.20178       -2.32552
C          6.58261       -1.09827       -1.55029
C          6.66522       -2.60661       -1.98216
C          7.45245       -3.53192       -0.97966
F          8.67553       -3.02479       -0.70339
F          6.78648       -3.70734        0.16431
F          7.62852       -4.74225       -1.56287
F          5.43321       -3.13175       -2.13089
F          7.32270       -2.67374       -3.17826
F          7.84316       -0.58022       -1.70245
F          6.27514       -1.02942       -0.22090
F          5.56071       -0.53832       -3.64381
F          6.01621        1.08125       -2.21270
H          1.28600        0.49849        0.87069
H          4.86364        1.28208        1.10507
