14

S          0.93542       -0.01262        0.01378
C          2.78301       -0.07321       -0.06784
C          3.28434       -1.39844        0.49959
C          4.81309       -1.46624        0.51643
C          5.33566       -2.72694        1.22670
Cl         4.98098       -4.13956       -0.11797
F          6.77007       -2.57804        1.11481
H          0.77493        1.19953       -0.56813
H          3.18060        0.77481        0.50821
H          3.08549        0.03993       -1.11780
H          2.89498       -2.23735       -0.09812
H          2.91401       -1.54043        1.52874
H          5.20973       -0.62548        1.11641
H          5.21379       -1.34936       -0.51571
