25

S          1.76952        0.91330        1.39691
In         3.93000       -0.07672        0.53699
C          3.32001       -1.94235       -0.72280
C          2.79067       -1.75851       -2.15771
F          1.69663       -0.96017       -2.17641
F          3.73597       -1.18625       -2.94927
F          2.43155       -2.93288       -2.76924
F          4.41052       -2.82014       -0.85576
F          2.33551       -2.68391       -0.06320
C          4.69462        1.52662       -0.78239
C          4.16565        2.82663       -0.70198
C          4.60836        3.85885       -1.54008
C          5.60406        3.63499       -2.49973
C          6.13974        2.34107       -2.59204
C          5.69336        1.31596       -1.75214
C          6.08842        4.74123       -3.40718
H          1.64012       -0.00753        2.37825
H          4.93021       -0.73494        1.82446
H          3.38117        3.04575        0.02915
H          4.16870        4.85796       -1.45009
H          6.91348        2.13211       -3.33847
H          6.13368        0.32195       -1.87466
H          5.52426        5.66953       -3.24040
H          5.98167        4.46877       -4.46891
H          7.15462        4.96365       -3.23971
