19

F          2.26098        0.77152       -0.83344
Ta         4.20376        0.53129       -1.06801
C          3.99505        1.18762        1.08672
O          3.22023        2.49307        1.19863
C          2.59260        2.73654        2.31681
F          1.60814        1.82409        2.65472
F          3.40191        2.79638        3.44569
F          1.96541        3.95308        2.24364
C          4.14999       -1.44059       -1.97997
N          3.28362       -0.65770       -2.87741
H          4.69530        1.56510       -2.46979
H          5.32135       -0.39887       -0.01509
H          5.65045        1.52390       -0.71134
H          4.91561        1.35220        1.65680
H          3.37847        0.42930        1.60302
H          3.67974       -2.32777       -1.53724
H          5.08451       -1.72360       -2.48360
H          2.28508       -0.74497       -2.70358
H          3.49802       -0.64281       -3.87011
