30

Br         3.44126       -1.88048       -2.00824
B          3.61788       -0.21608       -0.83019
S          4.40970       -0.69482        0.91084
O          5.43833       -1.73453        0.85612
O          4.72871        0.55264        1.62681
C          3.11426       -1.43085        2.23238
C          2.39537       -2.77231        1.91949
C          1.28824       -3.21380        2.95524
C          0.82925       -4.71298        2.83499
F          0.48478       -5.02469        1.57284
F          1.79137       -5.55903        3.24620
F         -0.25463       -4.90340        3.62681
F          1.72995       -3.04651        4.23292
F          0.17774       -2.44616        2.78230
F          1.77644       -2.67015        0.71362
F          3.32452       -3.76609        1.86097
F          3.84682       -1.58150        3.36809
F          2.14650       -0.48308        2.48367
C          2.23044        0.59309       -0.68855
C          2.38214        2.03514       -0.13838
C          1.04002        2.65405        0.20478
O          0.39505        3.38404       -0.54940
N          0.57147        2.33061        1.45900
H          4.57331        0.42682       -1.21596
H          1.50099        0.03205       -0.08179
H          1.78394        0.64807       -1.69408
H          2.86081        2.67103       -0.89428
H          3.02813        2.02758        0.75216
H          1.02640        1.60444        2.00016
H         -0.39668        2.54666        1.66607
