37

N          1.13191       -1.18714       -1.65273
C          1.78176       -0.41313       -0.57966
C          2.81180       -1.25984        0.17069
C          4.05440       -1.63949       -0.64727
C          5.04658       -2.50298        0.13984
Ga         6.77175       -2.87583       -0.79680
S          8.28052       -0.87443       -0.53786
O          9.65842       -1.15626       -0.09700
O          8.10688       -0.03567       -1.74072
C          7.62102        0.43751        0.82112
C          7.83364        0.07914        2.31431
C          7.09472        0.98257        3.36740
F          7.39136        2.28753        3.18689
F          5.75640        0.83703        3.30128
F          7.48487        0.63894        4.61962
F          7.39273       -1.19538        2.53149
F          9.15789        0.14541        2.61252
F          8.25367        1.61446        0.56352
F          6.27887        0.62291        0.60410
C          7.78355       -4.51511        0.00664
C          8.07265       -4.62764        1.51787
F          6.92929       -4.45900        2.23612
F          8.58445       -5.84332        1.87304
F          8.95695       -3.69023        1.91479
F          6.95884       -5.61992       -0.28390
F          8.98876       -4.77438       -0.62711
H          0.45114       -0.60929       -2.14716
H          0.60956       -1.96512       -1.24447
H          1.06031        0.00860        0.15054
H          2.29192        0.44247       -1.05187
H          2.31914       -2.17733        0.54502
H          3.13153       -0.70419        1.06830
H          4.54265       -0.70862       -0.98059
H          3.73995       -2.15969       -1.56492
H          4.60176       -3.48738        0.36667
H          5.26882       -2.04294        1.11488
H          6.89930       -2.97959       -2.35830
