21

Br         4.43234        2.59399       -0.40047
In         3.57865        0.14639       -0.11774
C          4.79940       -0.60049        1.57501
C          6.01732        0.01650        1.91369
C          6.80704       -0.46658        2.96396
C          6.40333       -1.58335        3.70600
C          5.19458       -2.19834        3.38507
C          4.39972       -1.70718        2.33455
C          4.72242       -3.39892        4.15840
F          5.60294       -3.79320        5.12405
F          3.53198       -3.17594        4.78806
F          4.52485       -4.48524        3.35068
C          8.11502        0.18222        3.32570
F          8.38203        1.29556        2.60170
F          8.16290        0.54861        4.64585
F          9.17775       -0.66875        3.14308
I          0.93673        0.15126        0.86172
H          3.59944       -0.63885       -1.67571
H          6.34638        0.89862        1.35895
H          7.01935       -1.96203        4.52068
H          3.44572       -2.19869        2.12400
