65

N          4.04919        0.67022        3.25447
C          3.10162        0.45970        2.13500
C          3.22147        1.57948        1.10380
Al         5.03763        1.94246        0.24717
C          5.97398        0.19818       -0.23649
C          6.36465       -0.07175       -1.56710
C          6.99850       -1.26023       -1.94070
C          7.28171       -2.26571       -0.99179
C          6.90440       -2.01145        0.34232
C          6.27192       -0.81560        0.70217
Si         8.12330       -3.84958       -1.52183
C          9.90241       -3.47554       -2.11223
C         10.81245       -2.92358       -1.00757
C         12.20759       -2.59346       -1.50695
C         13.22223       -2.02650       -0.45258
C         13.60661       -2.89912        0.81098
C         14.21343       -4.33265        0.56178
C         14.96680       -4.92863        1.81528
C         15.21077       -6.48278        1.74383
F         15.77612       -6.83049        0.57197
F         16.04788       -6.83307        2.74243
F         14.06450       -7.16656        1.89642
F         16.18333       -4.33706        1.92207
F         14.25727       -4.68865        2.94783
F         13.20017       -5.18201        0.23557
F         15.10099       -4.28989       -0.46198
F         14.53040       -2.17378        1.50395
F         12.50314       -3.03974        1.59213
F         14.38471       -1.70674       -1.08833
F         12.69445       -0.87867        0.06051
F         12.81078       -3.69617       -2.08114
F         12.15262       -1.63076       -2.48796
C          8.20425       -5.09778       -0.09967
C          7.23001       -4.63948       -2.99276
C          6.29699        3.09122        1.39777
C          7.11779        2.36753        2.46836
C          8.02739        3.20987        3.35900
O          8.69050        2.78589        4.28653
O          8.06317        4.53904        3.04415
H          3.84421        0.02938        4.02401
H          3.91459        1.61341        3.62625
H          2.05625        0.35311        2.50413
H          3.36429       -0.50426        1.66611
H          2.83076        2.51872        1.54568
H          2.53503        1.35690        0.26691
H          4.78638        2.77774       -1.15097
H          6.15880        0.67755       -2.33945
H          7.27170       -1.40851       -2.99241
H          7.10274       -2.76096        1.11585
H          5.99732       -0.66698        1.75207
H          9.83232       -2.74836       -2.93636
H         10.33788       -4.39459       -2.53618
H         10.90984       -3.64849       -0.18727
H         10.39112       -2.00352       -0.57434
H          8.72559       -4.69275        0.77926
H          8.72851       -6.01336       -0.41113
H          7.19278       -5.38289        0.22329
H          7.16314       -3.93687       -3.83560
H          6.20375       -4.91818       -2.71454
H          7.74856       -5.54374       -3.34424
H          5.65288        3.87179        1.84775
H          6.95477        3.58955        0.66072
H          7.77183        1.60715        2.00930
H          6.46770        1.78811        3.14519
H          7.44763        4.62406        2.27681
