69

C         14.68275       -2.88380       10.64248
C         14.28686       -1.42556       10.39796
C         13.40290       -1.23762        9.16106
C         12.98378        0.21474        8.91415
C         12.09352        0.39661        7.68093
C         11.64696        1.84288        7.44597
C         10.74384        2.01653        6.21775
C         10.24791        3.45516        6.00814
Si         9.11391        3.74796        4.50284
C          8.52565        5.53059        4.49199
C          9.40619        6.58700        4.18410
C          8.97522        7.91624        4.18358
C          7.64811        8.27540        4.49592
C          6.77431        7.21277        4.80671
C          7.19585        5.88164        4.80146
B          7.20606        9.82295        4.56142
S          5.72489       10.20002        3.35025
O          4.62903        9.21560        3.39012
O          5.35386       11.62431        3.37228
C          6.41221        9.99208        1.56621
F          6.84113        8.72988        1.32492
F          5.43265       10.27341        0.67078
F          7.44735       10.83250        1.31723
C          6.64654       10.31237        6.01957
C          7.77094       10.36430        7.06246
C          7.25706       10.84252        8.43014
C          8.32093       10.90911        9.50398
C          7.81911       11.42781       10.88705
F          7.33048       12.68693       10.78172
F          6.83004       10.63711       11.36872
F          8.81442       11.44693       11.80196
F          8.87581        9.67037        9.74555
F          9.35687       11.74527        9.14407
C         10.08842        3.36790        2.92034
C          7.63525        2.56609        4.60116
H         15.32058       -2.98844       11.53167
H         15.23643       -3.29426        9.78458
H         13.79457       -3.51581       10.79297
H         15.19532       -0.80892       10.29104
H         13.75829       -1.03346       11.28326
H         12.49903       -1.86440        9.26338
H         13.93581       -1.62079        8.27255
H         13.88612        0.84265        8.80915
H         12.45318        0.59595        9.80446
H         11.20040       -0.24560        7.78172
H         12.62939        0.02913        6.78762
H         12.53464        2.49077        7.33821
H         11.11268        2.21009        8.33978
H          9.87965        1.33663        6.31829
H         11.29224        1.67224        5.32308
H         11.10853        4.14112        5.91678
H          9.69822        3.79492        6.90316
H         10.45015        6.37230        3.93127
H          9.68562        8.70814        3.93003
H          5.72860        7.43707        5.03013
H          6.46811        5.09927        5.03658
H          8.07198       10.57266        4.13346
H          5.84994        9.63820        6.38438
H          6.19158       11.31381        5.93298
H          8.56551       11.04180        6.71359
H          8.23152        9.37035        7.17286
H          6.46337       10.17165        8.79389
H          6.81351       11.84620        8.33785
H         10.94509        4.04817        2.80863
H          9.44844        3.49667        2.03592
H         10.47297        2.33718        2.91498
H          7.07280        2.69600        5.53689
H          7.96327        1.51763        4.55031
H          6.94059        2.74118        3.76736
