42

C          2.66050       -0.55227        0.12311
C          1.19872       -0.27190       -0.13097
C          0.20330       -0.86657        0.65688
C         -1.14909       -0.58445        0.42586
C         -1.55299        0.29857       -0.59466
C         -0.54883        0.88655       -1.38165
C          0.80075        0.60478       -1.15631
Nb        -3.71381        0.31379       -0.34070
S         -4.91598       -1.71053        0.61755
O         -3.88744       -2.52975        1.30340
O         -6.17563       -1.46768        1.35454
C         -5.65822       -3.01571       -0.67424
C         -4.76699       -3.69557       -1.75561
F         -3.59304       -4.11552       -1.24895
F         -5.40463       -4.79939       -2.26279
F         -4.52239       -2.88140       -2.80079
F         -6.14518       -4.02619        0.10892
F         -6.71528       -2.44783       -1.32892
C         -5.37830        1.78027       -0.31328
C         -6.54601        1.70109        0.49215
C         -7.50991        2.70467        0.47277
C         -7.37629        3.84551       -0.34793
C         -6.25594        3.95901       -1.15614
C         -5.27882        2.93999       -1.13101
C         -4.09707        2.91606       -1.96728
O         -3.29354        1.96844       -1.91219
O         -3.83196        3.90152       -2.86430
H          2.79425       -1.45962        0.72816
H          3.13958        0.27913        0.66624
H          3.21568       -0.68353       -0.81757
H          0.48733       -1.56537        1.44915
H         -1.89702       -1.09899        1.05035
H         -0.83094        1.56855       -2.18769
H          1.56685        1.06597       -1.78856
H         -5.02570        0.11994       -1.49918
H         -3.70133       -1.04004       -1.43357
H         -4.05099        0.26677        1.41517
H         -6.69005        0.82460        1.12780
H         -8.39356        2.61088        1.10967
H         -8.14242        4.62214       -0.34810
H         -6.15200        4.84329       -1.79896
H         -4.55350        4.55328       -2.80888
