27

F          4.28147        1.74228        1.04568
C          3.20700        1.14251        0.50074
C          2.08061        0.90484        1.55701
S          2.59186       -0.12715        3.07307
O          3.05537       -1.36904        2.48102
O          3.53049        0.71452        3.79152
N          1.21172       -0.43053        3.81791
S          0.51533        0.47311        4.93938
O          0.27239       -0.30795        6.13932
O          0.97487        1.84480        5.07070
C         -1.21067        0.60092        4.14040
C         -2.37975        1.21069        4.99786
C         -2.30158        2.67850        5.57195
C         -2.08908        3.87757        4.57952
F         -3.01231        3.85609        3.59388
F         -2.25375        5.03073        5.27627
F         -0.87067        3.88656        4.03972
F         -3.51792        2.90201        6.16772
F         -1.35213        2.74874        6.52809
F         -3.50503        1.16531        4.21178
F         -2.59929        0.41041        6.07285
F         -1.12810        1.32890        2.98983
F         -1.63392       -0.65175        3.81376
F          1.64692        2.12838        1.96272
F          1.05645        0.27826        0.91023
F          2.73635        1.95875       -0.48520
F          3.60009       -0.00540       -0.08098
