31

Br         2.80416        2.82782       -0.99582
Al         3.59855        0.80942       -0.09351
S          4.87423       -0.40031       -1.84291
O          5.68311        0.41614       -2.76806
O          5.55944       -1.50320       -1.13407
C          3.72130       -1.47839       -3.05150
C          2.95447       -0.67972       -4.14114
C          1.78380       -1.45768       -4.85511
C          1.24490       -0.79561       -6.17507
F          0.91864        0.49487       -5.98040
F          2.14438       -0.87128       -7.17349
F          0.12983       -1.45605       -6.57479
F          2.19983       -2.71220       -5.19238
F          0.72598       -1.56513       -4.00969
F          2.40651        0.42523       -3.56325
F          3.83254       -0.28308       -5.10520
F          4.52795       -2.39399       -3.65252
F          2.81624       -2.14752       -2.27513
C          5.07191        1.05654        1.21828
C          6.19694        2.02743        0.83680
C          7.30998        2.10139        1.88269
N          8.35469        3.06676        1.48525
H          2.40020       -0.20394        0.23449
H          5.48765        0.05204        1.41488
H          4.60300        1.38218        2.16631
H          5.79380        3.03979        0.67438
H          6.64500        1.72329       -0.12590
H          7.70059        1.07705        2.04957
H          6.88537        2.43953        2.84355
H          8.69737        2.81735        0.55473
H          9.15888        2.99329        2.11043
