45

C          1.52243       -3.68083        0.21611
C          2.82144       -2.91494       -0.04312
C          2.66151       -1.78838       -1.07191
C          3.96061       -1.05671       -1.37863
As         5.28503       -2.16301       -2.53515
C          4.53593       -1.27382       -4.32833
C          4.89705        0.02768       -4.68914
C          4.37776        0.63122       -5.84301
C          3.48872       -0.06701       -6.67085
C          3.12860       -1.36901       -6.31833
C          3.65003       -1.96221       -5.15564
C          2.18271       -2.15685       -7.18022
F          1.67619       -1.43688       -8.22590
F          2.77760       -3.26102       -7.72894
F          1.10579       -2.62394       -6.47863
C          4.79457        2.01866       -6.24055
F          5.25162        2.75839       -5.19430
F          5.80324        2.01478       -7.17320
F          3.77258        2.73483       -6.80760
C          6.61784       -3.30413       -3.70007
C          7.24227       -4.36238       -2.83090
S          8.34580       -5.48646       -3.78305
C          8.82018       -6.66037       -2.47687
H          1.65870       -4.47880        0.96174
H          1.15238       -4.14909       -0.70870
H          0.72993       -3.01045        0.58582
H          3.59993       -3.60911       -0.39442
H          3.19770       -2.48640        0.90230
H          1.87943       -1.08850       -0.71744
H          2.26819       -2.22878       -2.00918
H          4.53323       -0.82703       -0.46510
H          3.77851       -0.11954       -1.92473
H          5.87678       -2.86068       -1.20188
H          4.17167       -3.34192       -2.74547
H          6.34666       -0.94242       -2.44820
H          5.59284        0.58136       -4.04845
H          3.07890        0.39969       -7.56507
H          3.35143       -2.98123       -4.88056
H          7.35735       -2.60182       -4.11244
H          6.02038       -3.73951       -4.51361
H          6.45957       -4.98406       -2.36193
H          7.83760       -3.90853       -2.02231
H          9.49282       -7.40273       -2.92689
H          7.93989       -7.17970       -2.07145
H          9.35084       -6.15381       -1.65732
