40

O          3.81349        1.37037        1.29215
C          3.27968        1.73892        0.06107
O          2.98810        2.91563       -0.09492
C          3.15540        0.65852       -0.92818
In         5.18629       -0.06696       -1.73038
C          5.98866       -1.10053        0.12320
C          5.34723       -2.22785        0.67346
C          5.82315       -2.86772        1.82678
C          6.97818       -2.40698        2.46791
C          7.63322       -1.29417        1.94044
C          7.13887       -0.64861        0.79367
C          8.87312       -0.76097        2.60755
F          9.31582       -1.55740        3.62598
F          9.91572       -0.63870        1.73324
F          8.68111        0.47926        3.14498
C          5.13795       -4.08943        2.37238
F          3.85310       -4.21571        1.94474
F          5.77849       -5.24847        2.00921
F          5.09931       -4.10117        3.74002
C          6.54791        1.63305       -2.13271
C          6.13090        2.97314       -2.01305
C          7.01035        4.04192       -2.23147
C          8.35217        3.82196       -2.57118
C          8.78215        2.49228       -2.69333
C          7.89776        1.42888       -2.48016
C          9.31137        4.97139       -2.77271
H          4.15435        0.45976        1.21375
H          2.53299        0.97991       -1.76877
H          2.75198       -0.26279       -0.48463
H          4.89499       -1.24454       -3.01118
H          4.44754       -2.62679        0.19744
H          7.35480       -2.90223        3.36158
H          7.67117        0.23038        0.41809
H          5.09955        3.20364       -1.73201
H          6.64661        5.06955       -2.12910
H          9.82479        2.28697       -2.95783
H          8.28423        0.41045       -2.59180
H          8.77435        5.91984       -2.91393
H          9.95590        4.81101       -3.65017
H          9.97733        5.09698       -1.90322
