25

C          2.90673        0.20789        1.70881
C          2.82575        0.27727        0.20738
S          1.72783        1.29946       -0.47054
O          1.48086        2.50624        0.31646
O          1.83386        1.39359       -1.92683
F          0.13305        0.56248       -0.35899
C          3.25461       -0.91591       -0.59715
C          4.78769       -1.08999       -0.65954
C          5.17039       -2.34732       -1.45268
C          6.65107       -2.64823       -1.45298
C          7.06232       -3.91121       -2.27015
F          6.44777       -5.01902       -1.78778
F          6.71544       -3.77791       -3.57252
F          8.39685       -4.12551       -2.21856
F          7.38504       -1.60645       -1.98004
F          7.12473       -2.86108       -0.17387
H          2.51131        1.12538        2.16279
H          3.95128        0.10026        2.05430
H          2.34304       -0.65081        2.13697
H          2.87007       -0.82455       -1.62443
H          2.82841       -1.86032       -0.18135
H          5.19719       -1.16038        0.35979
H          5.22899       -0.19740       -1.12500
H          4.84726       -2.25028       -2.50101
H          4.65571       -3.22877       -1.03744
