33

I          3.00550       -3.16649       -0.11306
Nb         4.50150       -0.71526        0.00729
C          5.42227        0.22659       -1.75272
C          6.03297       -0.57447       -2.73895
C          6.70861       -0.01429       -3.83143
C          6.80340        1.37027       -3.98475
C          6.19755        2.18423       -3.02127
C          5.52339        1.62515       -1.93077
C          6.31653        3.67408       -3.17936
F          7.61782        4.10174       -3.09366
F          5.86695        4.10695       -4.39958
F          5.62285        4.37379       -2.24239
C          7.36777       -0.92597       -4.83001
F          8.47225       -1.54837       -4.30994
F          6.53966       -1.92192       -5.25575
F          7.79472       -0.27098       -5.95002
C          4.66733        0.78338        1.58016
C          6.17467        0.69253        1.42168
C          6.91000        0.21043        2.67133
S          8.72203        0.01130        2.48032
H          3.39722       -0.63517       -1.35148
H          5.53823       -2.09774        0.51694
H          2.85048       -0.35682        0.45537
H          5.97401       -1.66439       -2.66706
H          7.32982        1.80213       -4.83399
H          5.06236        2.30559       -1.21146
H          4.29530        0.37554        2.53093
H          4.23495        1.77553        1.41120
H          6.62152        1.61819        1.02855
H          6.46130       -0.06757        0.61188
H          6.48260       -0.73916        3.02006
H          6.80026        0.94648        3.48071
H          8.66266       -0.96021        1.53795
