32

C          3.48621        1.19326        0.95470
C          2.67088        0.12078        0.23479
Nb         3.20948        0.87744       -1.74208
S          1.60804        1.99222       -3.17621
O          0.19612        2.36822       -2.95806
O          2.66315        3.04428       -2.85925
C          1.69047        1.91936       -5.09483
F          2.94721        1.90195       -5.56988
F          1.04771        0.81359       -5.54095
F          1.06278        3.00268       -5.61731
C          5.36856        1.35219       -2.03584
C          6.38145        0.61323       -1.38498
C          7.71945        1.02339       -1.36309
C          8.12857        2.18838       -2.02894
C          7.14354        2.92621       -2.70130
C          5.80233        2.52377       -2.69771
C          9.57879        2.60938       -2.05183
H          2.95553        1.72029        1.76489
H          3.80877        2.02824        0.26709
H          4.43241        0.79777        1.34822
H          1.58641        0.34970        0.24643
H          2.81883       -0.89436        0.60902
H          2.33911       -0.60183       -2.07528
H          3.47932        0.26373       -3.37058
H          4.03497       -0.63011       -1.94069
H          6.11522       -0.32391       -0.88503
H          8.46436        0.41888       -0.83353
H          7.43126        3.83934       -3.23458
H          5.07343        3.14360       -3.22579
H         10.08980        2.34754       -1.11313
H          9.67862        3.69439       -2.20222
H         10.13302        2.11661       -2.86893
