29

N          2.78177        1.62753        0.20067
C          2.52322        0.30275       -0.06208
O          1.88259       -0.04105       -1.05422
C          3.07178       -0.67380        0.97023
C          4.60798       -0.79532        0.82886
C          5.45584       -1.60648        1.83595
S          5.12301       -1.12033        3.61318
O          3.71404       -1.30363        3.93968
O          6.14934       -1.63188        4.49880
C          5.36261        0.80187        3.78708
F          4.81217        1.54189        2.79259
F          4.68761        1.10417        4.92572
F          6.63056        1.15759        3.95553
C          5.20193       -3.13343        1.75895
C          5.75199       -3.89226        0.44805
F          6.08029       -3.05876       -0.56089
F          6.80360       -4.67111        0.72518
F          4.77402       -4.71382       -0.03281
F          5.71552       -3.81117        2.82221
F          3.83885       -3.38890        1.78372
C          7.05922       -1.21726        1.59554
O          7.22142        0.01112        1.46085
O          7.82349       -2.19046        1.58392
H          2.58989        2.29292       -0.53911
H          3.44730        1.89055        0.91772
H          2.57629       -1.63385        0.79802
H          2.79854       -0.33318        1.97798
H          5.08382        0.19341        0.81727
H          4.82550       -1.22344       -0.15970
