24

F          1.59235        0.48427       -0.26360
Nb         3.33735       -0.37093       -0.00347
S          4.16485       -1.76388        1.91351
O          3.13080       -0.58556        2.12234
O          3.72573       -3.04962        2.50981
C          5.52707       -1.21875        2.99460
C          3.97738        1.24713       -1.40858
C          3.65844        2.67680       -0.95896
C          4.57491        3.16255        0.16497
N          4.30922        4.58037        0.49084
H          4.57217       -1.09155       -1.06268
H          4.97576        0.12923        0.52348
H          2.88235       -1.96604       -0.64050
H          5.82248       -0.21055        2.68994
H          6.35280       -1.93006        2.87157
H          5.13786       -1.25427        4.02025
H          3.31611        0.96042       -2.25354
H          5.01304        1.17108       -1.76158
H          2.61147        2.75997       -0.62703
H          3.76932        3.38959       -1.80600
H          5.62713        2.97145       -0.12759
H          4.39702        2.56600        1.07341
H          4.47020        5.14923       -0.34398
H          4.97760        4.90824        1.19072
