47

F          4.91638       -0.61089        0.78213
Ta         3.35372       -0.52873       -0.32073
C          1.10296       -0.76884        0.10871
C          0.07714       -1.27180       -0.96618
C          0.41232       -2.58448       -1.75031
C         -0.74685       -3.14132       -2.65935
F         -1.76694       -3.63624       -1.93056
F         -1.23434       -2.20507       -3.49738
F         -0.25731       -4.15718       -3.41488
F          1.46333       -2.35187       -2.58837
F          0.73047       -3.59835       -0.90331
F         -1.16680       -1.47491       -0.39763
F         -0.07372       -0.28917       -1.91011
F          0.99497       -1.68760        1.18268
F          0.43271        0.36549        0.58875
C          4.40609       -0.16681       -2.22063
C          5.49948       -1.04152       -2.44004
C          6.25903       -1.00429       -3.61285
C          5.96359       -0.08592       -4.64141
C          4.87688        0.78676       -4.43575
C          4.12614        0.74649       -3.25616
Si         6.99779       -0.03335       -6.20610
C          6.79295       -1.68056       -7.15285
C          7.60352       -1.76843       -8.45152
C          7.43748       -3.07348       -9.20159
F          6.14950       -3.29720       -9.58508
F          8.19203       -3.09214      -10.34520
F          7.82342       -4.15384       -8.46658
C          6.44686        1.38341       -7.33343
C          8.83066        0.18650       -5.77868
H          2.90476       -2.25199       -0.44832
H          2.82002        0.62424        0.89556
H          2.52621        0.85106       -1.07082
H          5.77747       -1.77216       -1.67196
H          7.09775       -1.70084       -3.72264
H          4.61249        1.51745       -5.20599
H          3.29505        1.44267       -3.12359
H          5.72094       -1.81417       -7.36629
H          7.07616       -2.50187       -6.47572
H          8.68233       -1.66121       -8.26191
H          7.31983       -0.97402       -9.15840
H          5.39807        1.26852       -7.64215
H          7.06234        1.43170       -8.24378
H          6.54037        2.35129       -6.82096
H          9.18523       -0.62523       -5.12733
H          8.98423        1.13172       -5.23906
H          9.46824        0.20451       -6.67523
