41

O          4.89050        2.04750        0.55400
Nb         3.47218        0.73430        0.94825
C          4.42953       -1.28314        1.20837
C          5.81112       -1.26543        1.54642
C          6.56632       -2.42004        1.75685
C          5.96259       -3.68438        1.63976
C          4.59550       -3.74989        1.31427
C          3.86591       -2.57950        1.10842
C          6.77189       -4.92227        1.83512
C          7.06568       -5.39064        3.31367
C          5.87878       -5.79186        4.26989
C          4.96326       -7.05454        3.97924
C          5.64858       -8.46101        3.80163
C          4.66061       -9.68223        3.94415
F          3.57615       -9.53183        3.16211
F          5.30968      -10.80330        3.56051
F          4.25998       -9.85071        5.21754
F          6.20030       -8.54441        2.56903
F          6.61805       -8.63721        4.73831
F          4.13509       -7.14892        5.06633
F          4.19427       -6.81610        2.89290
F          6.43706       -6.00543        5.50140
F          5.02426       -4.74490        4.37782
F          7.92270       -6.46202        3.29351
F          7.70804       -4.37137        3.95450
F          6.21244       -6.01837        1.20459
F          8.04752       -4.77668        1.30469
C          1.87491        1.45946        2.29633
N          2.51033        0.31342        2.95738
H          5.18309        2.51184       -0.23997
H          2.43306        1.43539       -0.30243
H          2.06325       -0.35185        0.54539
H          3.60026       -0.02766       -0.63813
H          6.33310       -0.30488        1.62929
H          7.62981       -2.34646        1.99545
H          4.11207       -4.72210        1.20112
H          2.81323       -2.66262        0.82653
H          0.79362        1.37367        2.16859
H          2.15340        2.39262        2.81117
H          2.00552       -0.56350        2.86835
H          2.90599        0.43071        3.88824
