34

N          1.83633        3.29402        0.57633
C          2.04770        1.84470        0.41252
C          2.80962        1.53920       -0.88002
C          4.27512        1.99751       -0.88749
C          5.01101        1.71734       -2.20759
Al         6.95221        2.20051       -2.21055
S          8.09671        0.56402       -0.77280
O          9.56093        0.58478       -0.98227
O          7.60204        0.54042        0.61982
C          7.63855       -1.21791       -1.39267
F          7.88090       -1.34966       -2.72768
F          8.36343       -2.15926       -0.74725
F          6.32397       -1.50120       -1.19579
C          7.93471        2.01151       -3.96719
C          7.82297        3.26822       -4.83864
C          8.57217        3.27405       -6.17282
O          8.48232        4.14964       -7.01025
O          9.38812        2.20342       -6.38029
H          1.33595        3.48818        1.44442
H          1.24858        3.64316       -0.18332
H          1.10246        1.26274        0.42394
H          2.64396        1.49873        1.27299
H          2.27262        2.00275       -1.72993
H          2.77212        0.45129       -1.05972
H          4.79726        1.49370       -0.05553
H          4.31515        3.07298       -0.65382
H          4.52277        2.27886       -3.02847
H          4.89772        0.65260       -2.48193
H          7.38464        3.53942       -1.41148
H          7.55651        1.12214       -4.49993
H          8.98413        1.81657       -3.67882
H          8.18447        4.15680       -4.29334
H          6.77592        3.50270       -5.09111
H          9.28118        1.63342       -5.58458
