29

F          2.09075        0.77090        0.18939
S          3.23687       -0.32766       -0.22368
O          2.64846       -1.08446       -1.30508
O          4.42592        0.46165       -0.45381
B          3.33598       -1.27412        1.45785
S          1.92216       -2.59827        1.48283
O          0.68166       -1.93603        1.09325
O          2.30865       -3.86211        0.86569
C          1.54284       -3.15784        3.32053
C          1.28727       -2.06800        4.40271
F          0.31040       -1.22271        4.02253
F          0.89350       -2.66202        5.56301
F          2.39785       -1.35765        4.66297
F          0.38583       -3.86817        3.18439
F          2.50378       -3.99325        3.76727
S          5.10208       -1.83242        2.02551
O          6.04793       -0.73508        1.87698
O          4.92914       -2.46512        3.33198
C          5.92563       -3.31032        1.04101
C          6.16694       -3.11133       -0.48177
C          6.79148       -4.33726       -1.24156
F          7.97488       -4.69621       -0.69847
F          5.97271       -5.40345       -1.22674
F          7.01138       -3.99327       -2.53124
F          4.97646       -2.84407       -1.07825
F          7.00965       -2.06347       -0.67100
F          7.12836       -3.45860        1.66295
F          5.19746       -4.43154        1.24056
H          3.12213       -0.46456        2.31908
