35

C          0.78559       -4.43374        0.62266
C          2.30010       -4.49552        0.40341
C          3.06938       -3.39209        1.13815
C          4.58827       -3.43595        0.92310
C          5.36081       -2.33849        1.64057
P          7.26760       -2.37432        1.26411
C          7.54122       -0.81161        2.39447
C          8.07423       -0.87907        3.69260
C          8.32580        0.27524        4.44491
C          8.04981        1.55219        3.93459
C          7.51823        1.63026        2.63798
C          7.27144        0.47211        1.89298
C          8.28820        2.79753        4.75684
F          7.49625       -3.45969        2.65147
H          0.25645       -5.23511        0.08425
H          0.37500       -3.47222        0.27619
H          0.53583       -4.52824        1.69103
H          2.51953       -4.43150       -0.67658
H          2.68009       -5.47919        0.72938
H          2.85235       -3.45879        2.21987
H          2.68371       -2.40719        0.81614
H          4.79960       -3.38260       -0.16203
H          4.97484       -4.41875        1.24737
H          5.23149       -2.42249        2.73067
H          4.98775       -1.34558        1.33419
H          7.10357       -3.56938        0.41132
H          7.11214       -1.49795        0.09460
H          8.72503       -2.43309        1.06776
H          8.29756       -1.86271        4.11111
H          8.74609        0.18522        5.45348
H          7.29828        2.61414        2.20752
H          6.86597        0.56559        0.87918
H          9.00542        2.60947        5.56925
H          7.35724        3.16369        5.22263
H          8.68274        3.62016        4.14086
