64

S          1.40873       -0.21972        0.51744
C          2.81485        0.28120       -0.43480
C          3.38517       -0.65583       -1.35546
C          2.98894       -2.02899       -1.40838
C          3.52788       -2.92043       -2.33157
C          4.48116       -2.52947       -3.28016
C          4.84804       -1.17193       -3.27865
C          4.32345       -0.26617       -2.36902
C          5.79762       -0.69736       -4.33996
F          6.90956       -1.49593       -4.44112
F          5.23148       -0.70428       -5.59315
F          6.25446        0.56886       -4.14091
C          3.09656       -4.35856       -2.27193
F          3.68590       -5.04569       -1.23782
F          1.74967       -4.50497       -2.09061
F          3.40760       -5.05764       -3.40494
C          3.28484        1.63644       -0.23531
C          4.66060        1.99824       -0.35026
C          5.09864        3.30617       -0.19414
C          4.21495        4.37002        0.09782
C          2.85722        4.00854        0.26761
C          2.40996        2.70277        0.12136
Si         4.81100        6.12101        0.31418
C          5.15113        6.50800        2.15011
C          3.93020        6.36657        3.07031
C          4.22878        6.63321        4.55068
C          2.99692        6.53101        5.45572
C          3.28999        6.81682        6.93191
C          2.05676        6.73087        7.83669
C          2.34783        7.03551        9.31014
C          1.11167        6.93738       10.20844
C          6.42458        6.41517       -0.63544
C          3.51333        7.35370       -0.31569
H          0.41883       -0.25228       -0.43155
H          2.24152       -2.37723       -0.69649
H          4.89940       -3.23388       -3.99428
H          4.61120        0.77849       -2.45231
H          5.40070        1.21937       -0.53564
H          6.17078        3.49977       -0.29667
H          2.11666        4.77776        0.50884
H          1.35330        2.47447        0.26648
H          5.56968        7.52839        2.22799
H          5.95051        5.82300        2.48402
H          3.50798        5.35292        2.96384
H          3.13414        7.05802        2.74144
H          4.67654        7.63827        4.65590
H          4.99980        5.92241        4.89742
H          2.55546        5.52378        5.35791
H          2.22343        7.23335        5.09634
H          3.73984        7.82184        7.02519
H          4.05750        6.11009        7.29456
H          1.61310        5.72282        7.75415
H          1.28399        7.42896        7.46768
H          2.78331        8.04641        9.39155
H          3.12536        6.34361        9.67667
H          0.32717        7.63870        9.88580
H          1.35199        7.16726       11.25655
H          0.67861        5.92610       10.18104
H          7.23903        5.78406       -0.25218
H          6.74285        7.46426       -0.54484
H          6.29705        6.18486       -1.70244
H          2.54752        7.22231        0.19255
H          3.34142        7.21408       -1.39214
H          3.84228        8.39039       -0.14920
