30

S          4.34687        3.15558        0.10197
C          4.25687        1.33109       -0.11986
C          4.77387        0.65586        1.14769
C          4.76732       -0.87196        1.00800
C          5.51738       -1.63396        2.11678
C          4.88116       -1.50766        3.53785
C          3.33999       -1.69058        3.87369
C          2.55687       -3.06680        3.81400
C          3.15022       -4.30950        4.57152
F          4.27416       -4.77259        4.03513
F          3.37085       -4.00687        5.87289
F          2.22111       -5.30184        4.53538
F          1.35068       -2.81395        4.43651
F          2.27903       -3.41384        2.54733
F          3.19154       -1.27001        5.17227
F          2.60865       -0.83574        3.09226
F          5.53809       -2.33981        4.41539
F          5.10955       -0.21799        3.99712
C          5.68008       -3.17064        1.66710
O          6.89227       -3.53575        1.67993
O          4.65337       -3.78358        1.32539
O          6.82886       -1.12627        2.26537
H          3.82019        3.50006       -1.09713
H          4.86994        1.04913       -0.98730
H          3.21320        1.04999       -0.31869
H          4.15875        0.97449        2.00134
H          5.80382        0.98588        1.35151
H          5.29218       -1.14254        0.07721
H          3.74650       -1.26672        0.90962
H          7.33252       -1.99183        2.11597
