33

C          1.01248       -0.46460        0.90229
C          2.51362       -0.66800        0.67950
C          2.93305       -0.52778       -0.78709
C          4.42764       -0.75007       -1.03725
C          4.82669       -0.64617       -2.51702
C          6.30735       -0.90150       -2.79993
Ga         6.81726       -0.87978       -4.75446
C          6.27444        0.80498       -5.76474
C          6.55282        0.69670       -7.25022
S          6.16561        2.27051       -8.14199
C          6.52187        1.77920       -9.85481
I          5.35470       -2.90631       -5.88645
H          0.73390       -0.57747        1.96067
H          0.42630       -1.19384        0.32236
H          0.69685        0.53903        0.57831
H          2.80820       -1.66702        1.04417
H          3.08002        0.05540        1.29112
H          2.64708        0.47520       -1.15230
H          2.35647       -1.24479       -1.39832
H          4.71658       -1.74789       -0.66017
H          5.01347       -0.02191       -0.44611
H          4.54153        0.35472       -2.88952
H          4.22002       -1.36338       -3.09806
H          6.60673       -1.88331       -2.39579
H          6.93302       -0.14803       -2.28540
H          8.33249       -1.28955       -5.05750
H          6.85924        1.63009       -5.32086
H          5.21019        1.02006       -5.58356
H          5.94549       -0.10045       -7.70511
H          7.61327        0.46899       -7.44289
H          6.33649        2.65103      -10.49672
H          5.86580        0.95730      -10.17559
H          7.57067        1.47008       -9.97331
