32

O          1.38721       -0.49544       -0.57469
C          2.56441       -0.14956       -0.48679
O          3.60157       -0.46308       -1.13765
C          2.99724        0.95753        0.67972
C          2.35689        2.35754        0.33689
C          0.85949        2.80457        0.64215
C          0.44537        3.42893        2.04783
C          1.22293        4.67010        2.63365
F          1.46979        5.60413        1.69585
F          0.43957        5.24183        3.58691
F          2.37242        4.31672        3.22244
F         -0.84634        3.85295        1.86877
F          0.43013        2.48524        3.01613
F          0.56709        3.80049       -0.25793
F         -0.00661        1.79236        0.42727
F          3.12792        3.36448        0.88039
F          2.48008        2.49100       -1.02306
C          2.72828        0.44018        2.09529
C          3.51184       -0.85635        2.55923
C          5.08676       -0.90820        2.75395
C          5.79750        0.20732        3.60430
F          5.20857        0.33848        4.81290
F          7.08283       -0.18482        3.81390
F          5.82670        1.39565        3.00036
F          5.31862       -2.08131        3.43493
F          5.72394       -1.00919        1.56995
F          2.99082       -1.16777        3.79069
F          3.22043       -1.88120        1.71901
F          3.03454        1.40203        3.05294
F          1.41322        0.12061        2.27807
O          4.37518        1.13087        0.53448
H          4.49972        0.50661       -0.27409
