35

C          0.42000        2.27766        4.94598
C          1.87524        1.89547        5.22975
C          2.78450        2.00427        4.00102
C          4.24058        1.60191        4.27457
C          5.15710        1.69213        3.04050
Al         7.00490        1.08006        3.42011
S          7.91529        0.51173        1.21420
O          6.97208       -0.41930        0.56144
O          8.43575        1.63658        0.42027
C          9.56323       -0.55637        1.47528
C          9.39376       -2.09067        1.60304
F          8.99239       -2.63348        0.43810
F         10.58040       -2.68152        1.93901
F          8.50297       -2.40445        2.56258
F         10.40534       -0.31713        0.43662
F         10.15793       -0.10127        2.62373
S          8.18820        2.87171        4.43729
O          8.34933        4.13014        3.67693
O          7.44073        2.95187        5.72557
C          9.87744        2.36982        4.90221
H         -0.21041        2.18695        5.84315
H         -0.01335        1.63253        4.16618
H          0.34583        3.31660        4.58955
H          1.91591        0.86314        5.61841
H          2.27638        2.53592        6.03352
H          2.76184        3.04050        3.61867
H          2.38032        1.37257        3.18914
H          4.24830        0.57096        4.67291
H          4.64360        2.23555        5.08274
H          5.18100        2.72683        2.65972
H          4.75505        1.07135        2.22059
H          7.34229       -0.22728        4.28424
H         10.49233        2.30960        3.99707
H          9.83181        1.40435        5.41983
H         10.24213        3.15764        5.57453
