34

O          5.58248        0.35244        3.38382
C          5.20819       -0.73924        2.70220
O          5.09186       -1.81714        3.26360
C          4.96810       -0.59729        1.19547
C          4.51924        0.77339        0.69368
Ta         5.69332        2.53502        0.36733
C          5.31101        4.58784        1.28378
F          3.96022        4.59308        1.66028
F          5.97996        5.00499        2.42178
F          5.44602        5.67996        0.43020
C          7.83675        2.79174        0.81569
C          8.82315        3.17434       -0.29496
C          8.42090        4.50100       -0.96027
C          9.42823        5.00101       -1.96971
C          9.02103        6.31296       -2.70812
F          7.86961        6.14378       -3.39477
F          8.84351        7.32596       -1.82912
F          9.97646        6.69504       -3.59014
F         10.64937        5.26749       -1.37774
F          9.66838        4.07036       -2.95882
H          5.63121        1.18195        2.79137
H          4.25752       -1.39974        0.94277
H          5.91979       -0.88173        0.71262
H          3.56610        1.08920        1.15897
H          4.31769        0.71678       -0.40910
H          6.58287        1.88120       -1.08787
H          4.70625        3.52184       -0.76509
H          5.82792        2.45322        2.18156
H          8.06466        1.76286        1.17108
H          7.97468        3.44826        1.68963
H          8.83482        2.38743       -1.06298
H          9.85091        3.26912        0.09877
H          8.28557        5.29040       -0.20551
H          7.45480        4.38330       -1.47738
