72

C          0.89641       -0.31816       -0.01325
C          2.40802       -0.42797        0.22731
C          3.02296        0.80013        0.88731
P          4.95906        0.62642        1.12171
C          5.30786        1.06831       -0.77599
C          4.78342        2.14690       -1.50503
C          5.09135        2.33780       -2.85686
C          5.94907        1.45412       -3.54427
C          6.48561        0.37545       -2.80833
C          6.16614        0.19774       -1.45999
Si         6.31840        1.70166       -5.35923
C          6.96502        3.47941       -5.64302
C          7.28618        3.80680       -7.10533
C          7.76700        5.22305       -7.33824
F          8.91266        5.50873       -6.65741
F          8.03838        5.44817       -8.66339
F          6.84647        6.15860       -6.97009
C          7.63572        0.48209       -5.96475
C          4.75193        1.48086       -6.40638
C          5.19428        2.47796        1.71627
C          4.35901        3.09859        2.65803
C          4.65014        4.36414        3.17830
C          5.79837        5.07708        2.77344
C          6.64100        4.45057        1.82989
C          6.34259        3.18191        1.32520
Si         6.23379        6.72678        3.54210
C          7.07062        6.44081        5.23874
C          8.26644        5.48434        5.17266
C          8.95426        5.26571        6.50129
F          8.12515        4.74069        7.44754
F         10.01206        4.40802        6.38964
F          9.45675        6.42596        7.02848
C          7.43791        7.70027        2.45029
C          4.69727        7.78604        3.85978
H          0.48605       -1.22521       -0.48789
H          0.66184        0.53627       -0.66768
H          0.35451       -0.16087        0.93295
H          2.91768       -0.61750       -0.73365
H          2.61450       -1.31608        0.84909
H          2.58416        0.93772        1.88999
H          2.78377        1.70244        0.30192
H          4.76825        0.24122        2.54983
H          4.90548       -0.80099        0.70355
H          6.43938        0.48031        1.26416
H          4.12817        2.86817       -1.00776
H          4.65421        3.19527       -3.38207
H          7.16183       -0.33417       -3.29609
H          6.59163       -0.64609       -0.90229
H          7.85957        3.62019       -5.01659
H          6.20741        4.18081       -5.25865
H          6.40505        3.67471       -7.75163
H          8.07627        3.14944       -7.49963
H          8.57883        0.60819       -5.41386
H          7.84726        0.61821       -7.03568
H          7.30408       -0.55644       -5.82456
H          3.96748        2.18214       -6.08676
H          4.35360        0.46429       -6.27725
H          4.93339        1.63658       -7.48064
H          3.46484        2.57635        3.00931
H          3.96674        4.80294        3.91394
H          7.54444        4.96142        1.48070
H          7.02475        2.71175        0.60891
H          6.31140        6.03284        5.92489
H          7.38256        7.41365        5.65288
H          9.04324        5.85362        4.48575
H          7.95744        4.49521        4.80318
H          8.37581        7.15419        2.27566
H          7.69359        8.66313        2.91694
H          6.99218        7.90701        1.46702
H          3.96918        7.25606        4.49014
H          4.19601        8.03897        2.91479
H          4.96112        8.72519        4.36859
