31

C          1.52003       -0.35152        1.04491
C          2.81483        0.19643        0.42261
C          2.76090        0.37795       -1.08649
Sb         4.71998        1.05583       -1.99672
C          5.50535       -1.07627       -1.62980
C          6.25253       -1.39204       -0.48733
C          6.68926       -2.69657       -0.22981
C          6.38912       -3.74449       -1.11481
C          5.64910       -3.43437       -2.26557
C          5.21790       -2.12425       -2.51181
C          6.82479       -5.16128       -0.82058
N          6.60686        1.64609       -2.90036
H          1.60279       -0.46294        2.13962
H          1.27258       -1.33961        0.62647
H          0.66639        0.31331        0.83858
H          3.64362       -0.48589        0.67796
H          3.06739        1.15742        0.90333
H          2.00692        1.12497       -1.38500
H          2.53274       -0.57173       -1.59625
H          5.42577        1.48766       -0.38635
H          4.09004        2.70577       -2.25610
H          4.17810        0.49665       -3.62956
H          6.49832       -0.59336        0.22391
H          7.27127       -2.91078        0.67386
H          5.40812       -4.23435       -2.97502
H          4.64149       -1.91246       -3.42141
H          7.85415       -5.19892       -0.43310
H          6.78221       -5.78851       -1.72258
H          6.17948       -5.63624       -0.06270
H          6.74163        0.97131       -3.66331
H          7.32081        1.38201       -2.21047
