7

Nb         1.03072       -0.12859        0.37337
I          0.55258        0.51831        3.01982
Br         0.93837       -1.01783       -1.95213
Cl         3.12564        1.13588        0.35580
H         -0.48975        0.65139        0.04543
H          0.98710       -1.78153        0.91380
H         -0.49864       -0.93720        0.70820
