39

C          4.60041       -3.97198        1.30412
S          5.38592       -2.74197        0.21110
C          3.94584       -2.42521       -0.88808
C          4.18745       -1.30812       -1.89505
Ta         5.95487       -1.37087       -3.30989
C          4.63664       -2.85490       -4.34799
C          4.70781       -4.27277       -4.32255
C          3.74732       -5.08216       -4.92465
C          2.65783       -4.52635       -5.62402
C          2.54833       -3.14446       -5.69275
C          3.50979       -2.33168       -5.05590
C          3.47206       -0.88130       -5.06855
O          4.34354       -0.21094       -4.49412
O          2.49716       -0.19600       -5.73615
C          7.58113       -2.83081       -3.40154
C          8.32669       -3.54575       -2.25180
C          7.84937       -4.97513       -2.06428
O          8.39479       -5.94769       -2.55706
O          6.72931       -5.15048       -1.31533
H          5.35429       -4.29248        2.03407
H          4.26408       -4.85007        0.73572
H          3.74724       -3.53053        1.83893
H          3.10540       -2.20918       -0.20210
H          3.71663       -3.36994       -1.40766
H          4.35956       -0.35291       -1.35688
H          3.24817       -1.18836       -2.46048
H          6.83731       -1.20448       -1.69554
H          6.29587       -1.59257       -5.08040
H          6.73689        0.16081       -3.85460
H          5.53779       -4.75663       -3.80365
H          3.83891       -6.16972       -4.85507
H          1.91626       -5.16881       -6.10157
H          1.70102       -2.71191       -6.24261
H          1.90951       -0.85201       -6.15024
H          8.16405       -1.89238       -3.63899
H          7.63894       -3.44693       -4.31063
H          8.19401       -2.97264       -1.32090
H          9.40471       -3.62407       -2.46752
H          6.40703       -4.27597       -0.94965
