35

C          0.95466       -3.30484       -0.41928
C          2.46459       -3.34523       -0.14543
C          3.13837       -1.96136       -0.10821
Al         5.08397       -2.07377        0.34570
S          5.87395        0.19103        0.93761
O          5.21022        0.76798        2.12059
O          7.35063        0.25379        0.87541
C          5.30040        1.39842       -0.52808
C          6.15407        2.68383       -0.71748
C          5.54286        3.78747       -1.65545
F          5.21458        3.27499       -2.86089
F          4.44410        4.35105       -1.11685
F          6.45348        4.77169       -1.85659
F          6.35291        3.27542        0.49330
F          7.35865        2.34997       -1.25269
F          5.34189        0.67154       -1.69212
F          3.99955        1.75574       -0.31437
C          6.32640       -2.64953       -1.13774
C          7.77441       -2.89274       -0.69141
C          8.74480       -3.44797       -1.72860
O          9.84568       -3.89619       -1.48207
O          8.30106       -3.40623       -3.02227
H          0.50794       -4.31247       -0.43517
H          0.74493       -2.82640       -1.38851
H          0.43581       -2.71726        0.35370
H          2.94416       -3.97762       -0.91417
H          2.63631       -3.86741        0.81218
H          2.63464       -1.33116        0.64628
H          2.98545       -1.44999       -1.07523
H          5.44205       -2.75734        1.76866
H          6.26967       -1.87213       -1.92199
H          5.88501       -3.57345       -1.55750
H          7.82274       -3.57794        0.16897
H          8.22065       -1.95249       -0.32408
H          7.38881       -3.04472       -2.97509
