30

Cl         1.49738        0.94707        0.15044
B          3.27123        0.49192       -0.24717
S          3.61474       -1.36147        0.35169
O          5.00189       -1.70700        0.00390
O          3.15988       -1.68410        1.70935
C          2.62358       -2.61963       -0.85718
C          1.44649       -3.49297       -0.30699
C          0.08668       -2.84519        0.16488
C         -0.88189       -2.23068       -0.91553
F         -1.27719       -3.16922       -1.80619
F         -1.98960       -1.78543       -0.27222
F         -0.34560       -1.20699       -1.58190
F         -0.63122       -3.86783        0.73909
F          0.31093       -1.91054        1.10494
F          1.10665       -4.40587       -1.28490
F          1.91731       -4.19989        0.75423
F          2.19552       -1.94820       -1.96436
F          3.55336       -3.53097       -1.26514
C          4.33347        1.40018        0.58126
C          5.72791        1.52622       -0.05267
C          6.65877        2.38210        0.80356
S          8.28879        2.78140        0.05223
H          3.44219        0.44505       -1.44531
H          4.42377        1.05812        1.62785
H          3.87575        2.40337        0.64336
H          5.64349        1.96897       -1.05781
H          6.16979        0.52667       -0.18881
H          6.83083        1.91677        1.78464
H          6.21812        3.37447        0.98848
H          8.68740        1.50245       -0.14832
