19

O          1.18614       -0.13302        0.05113
C          2.44147       -0.00576        0.03598
O          3.22748        0.20064        1.00271
C          3.11690       -0.10388       -1.39102
C          2.74221        1.12166       -2.25364
C          1.26541        1.15760       -2.64065
S          0.90357        2.63320       -3.66270
C         -0.90412        2.50379       -3.75654
N          4.57766       -0.25027       -1.25912
H          2.69211       -1.00171       -1.87875
H          3.36195        1.10884       -3.17062
H          3.00428        2.03994       -1.69979
H          0.65180        1.16622       -1.72866
H          0.99985        0.25826       -3.21916
H         -1.26307        3.35048       -4.35632
H         -1.35496        2.55638       -2.75579
H         -1.21407        1.56802       -4.24362
H          4.73282       -0.06330       -0.25298
H          5.05089        0.50063       -1.76785
