20

N          1.06379        0.17764        0.12719
C          2.53573        0.06219        0.01648
C          3.23575        0.97190        1.01963
C          4.76517        0.92119        0.92155
N          5.33709        1.81656        1.90780
S          6.90674        1.88257        1.93468
O          7.60133        0.60837        2.25712
O          7.54860        2.60275        0.80397
C          7.13970        2.95088        3.37603
H          0.61508       -0.30801       -0.65203
H          0.80598        1.16252        0.02937
H          2.90970        0.29467       -1.00100
H          2.80306       -0.98855        0.21881
H          2.92819        0.70551        2.04336
H          2.91397        2.01698        0.85779
H          5.05021        1.18735       -0.12316
H          5.08949       -0.13566        1.06270
H          6.72710        2.45034        4.25867
H          6.62879        3.90291        3.19517
H          8.22060        3.10381        3.48218
