42

O          3.89690        0.01498        0.81087
P          2.27057        0.43077        0.28761
C          1.34876       -0.75292        1.62900
C          2.12449       -1.64180        2.62620
F          2.91972       -2.53555        1.98026
F          2.89536       -0.91445        3.46296
F          1.28802       -2.38881        3.42437
F          0.51905        0.03329        2.42466
F          0.50564       -1.63269        0.95230
C          2.88624        1.62153       -1.06598
C          3.31716        1.16491       -2.31986
C          3.74037        2.04866       -3.31490
C          3.74676        3.44367       -3.10070
C          3.30384        3.90041       -1.84064
C          2.88899        3.00737       -0.85151
Si         4.39575        4.63326       -4.38654
C          3.91463        4.01790       -6.13150
C          4.46845        4.87633       -7.27394
C          4.08652        4.39266       -8.65641
F          2.73789        4.37730       -8.85484
F          4.61212        5.19833       -9.63289
F          4.53587        3.13174       -8.91505
C          3.67234        6.36749       -4.13911
C          6.28728        4.75954       -4.30436
H          4.17173       -0.76640        0.30310
H          2.26827       -0.70759       -0.65034
H          2.31092        1.47891        1.29874
H          0.88115        0.76003       -0.06998
H          3.32056        0.08664       -2.51603
H          4.07458        1.64031       -4.27496
H          3.28393        4.97400       -1.62667
H          2.55814        3.38812        0.12130
H          2.81543        3.97893       -6.18543
H          4.26592        2.98024       -6.24321
H          5.56825        4.90881       -7.25525
H          4.11438        5.91628       -7.20662
H          2.57505        6.35259       -4.20254
H          4.05022        7.07467       -4.89266
H          3.94227        6.76915       -3.15206
H          6.75231        3.77859       -4.47932
H          6.59618        5.09333       -3.30341
H          6.69855        5.47053       -5.03716
