34

N          0.79157       -0.04155       -0.29906
Sb         2.77008        0.44808        0.45277
C          3.41927       -1.80914        0.47185
C          3.01100       -2.79575       -0.44031
C          3.49797       -4.11066       -0.36768
C          4.40114       -4.48018        0.63734
C          4.80509       -3.51322        1.55835
C          4.32051       -2.19677        1.46646
C          5.79320       -3.85673        2.63531
F          6.06897       -5.19389        2.71105
F          6.99852       -3.23035        2.45298
F          5.36290       -3.48202        3.87727
C          3.06625       -5.16880       -1.34219
F          2.33836       -4.68264       -2.38193
F          4.13115       -5.83808       -1.89288
F          2.29310       -6.14126       -0.75332
C          3.49665        0.56824       -1.68615
C          4.98644        0.85634       -1.77809
C          5.53362        0.92699       -3.21246
H          0.45817       -0.83822        0.25404
H          0.87334       -0.40275       -1.25625
H          4.41566        0.73998        1.11870
H          2.37669        2.18544        0.47553
H          2.10760        0.17900        2.08645
H          2.29936       -2.54438       -1.23139
H          4.78252       -5.49887        0.69653
H          4.66702       -1.44755        2.18852
H          2.89364        1.36064       -2.15848
H          3.24850       -0.39052       -2.16905
H          5.54246        0.08128       -1.22186
H          5.21085        1.80474       -1.25921
H          5.37160       -0.02446       -3.74254
H          6.61557        1.13973       -3.22900
H          5.02662        1.71437       -3.79174
