17

F          1.47381       -0.07700        0.69564
S          2.74873       -0.17668       -0.33014
O          3.77679       -0.84058        0.44071
O          2.21676       -0.80332       -1.52116
B          3.12137        1.69370       -0.54821
S          1.75591        2.66172       -1.51559
O          0.44668        2.31232       -0.97127
O          2.14502        4.06425       -1.61140
C          1.67454        2.07589       -3.35346
F          2.88975        1.72226       -3.81245
F          0.83215        1.04166       -3.50853
F          1.21521        3.10616       -4.09968
S          4.93875        1.95851       -1.12382
O          5.10721        3.13352       -1.94872
O          5.85612        1.70743       -0.03401
F          5.15953        0.69527       -2.15086
H          3.05637        2.22341        0.52928
