46

C          4.23505        4.12694       -5.75173
O          4.16930        3.01040       -4.89253
C          5.19166        3.04362       -3.89579
C          5.21367        1.74754       -3.10890
O          5.84508        0.74448       -3.85852
C          6.00140       -0.48090       -3.11663
C          6.88846       -1.46034       -3.87253
B          8.50274       -1.09943       -3.97603
C          9.19960       -1.14073       -2.47207
C         10.58445       -0.47639       -2.33551
C         10.47945        1.05432       -2.37817
C         11.33145       -0.91631       -1.06650
C          9.26039       -2.20914       -4.94645
C          8.95614       -2.19029       -6.45793
C          9.49909       -0.92208       -7.13033
C          9.49578       -3.43746       -7.17750
H          3.42441        4.02443       -6.48607
H          5.20140        4.17414       -6.28997
H          4.09943        5.08152       -5.20170
H          5.00894        3.89585       -3.20778
H          6.18089        3.18656       -4.37089
H          4.17216        1.46505       -2.83396
H          5.76145        1.93109       -2.15801
H          4.98214       -0.88747       -2.91932
H          6.44712       -0.23590       -2.12892
H          6.43309       -1.60989       -4.87087
H          6.77168       -2.43690       -3.35493
H          8.63142        0.04027       -4.45763
H          9.29741       -2.20314       -2.15895
H          8.54322       -0.67859       -1.70323
H         11.19735       -0.78860       -3.20311
H          9.91705        1.42126       -1.50158
H          9.93925        1.37196       -3.27997
H         11.47235        1.53582       -2.36523
H         10.75632       -0.63843       -0.16634
H         12.32834       -0.44737       -0.98346
H         11.46551       -2.00891       -1.04640
H          9.01551       -3.22591       -4.56778
H         10.36378       -2.12672       -4.83899
H          7.85693       -2.18594       -6.58710
H         10.60048       -0.89341       -7.05614
H          9.10953       -0.02696       -6.62825
H          9.23452       -0.87966       -8.20071
H         10.59336       -3.49360       -7.07557
H          9.26081       -3.43404       -8.25705
H          9.07889       -4.35811       -6.74018
