37

C          1.17017        0.56702       -0.65631
C          2.67540        0.49187       -0.38912
C          3.08706        1.10489        0.95261
C          4.59097        1.02633        1.23007
C          4.98612        1.62118        2.58439
C          6.49622        1.53147        2.83196
C          6.91101        2.11453        4.19322
S          8.76653        1.94092        4.23603
O          9.18575        0.59925        4.62096
O          9.33122        2.55408        3.04553
C          9.33786        3.07864        5.69912
C         10.80726        2.74211        6.14136
C         11.48848        3.84255        7.03630
F         10.72275        4.15303        8.10000
F         12.67115        3.36402        7.49659
F         11.74308        4.96563        6.34208
F         10.81286        1.59386        6.86602
F         11.60483        2.58110        5.05143
F          9.29367        4.36714        5.28834
F          8.53258        2.92264        6.77101
C          6.45266        3.69679        4.34778
O          6.69641        4.31201        3.29017
O          5.94059        4.01197        5.42833
Br         6.19724        0.94931        5.64394
H          0.90508        0.12453       -1.62770
H          0.81980        1.61031       -0.65731
H          0.60282        0.03211        0.12058
H          3.21983        1.00253       -1.20171
H          3.00343       -0.56133       -0.42145
H          2.53965        0.59764        1.76704
H          2.76584        2.16071        0.98584
H          5.13720        1.54931        0.42529
H          4.91380       -0.02950        1.18235
H          4.44790        1.09511        3.38884
H          4.68548        2.67901        2.63069
H          7.02199        2.12531        2.07084
H          6.82991        0.48398        2.75145
