46

S          1.97577        1.05785       -1.29664
C          3.45414        0.32683       -0.45262
C          3.95948        1.28849        0.62511
C          5.22430        0.80009        1.33955
Al         5.84771        2.12610        2.76900
C          4.44907        2.14793        4.25584
C          4.43257        1.27620        5.36424
C          3.43066        1.31079        6.34414
C          2.37459        2.22851        6.26259
C          2.36395        3.10848        5.16903
C          3.37495        3.06549        4.20375
C          1.28669        2.27615        7.30936
C          7.72645        1.69187        3.42925
C          8.18854        0.22867        3.44781
C          9.66846        0.03042        3.81510
C         10.15849       -1.41986        3.75543
C         11.64675       -1.58275        4.08185
C         12.14145       -3.02902        3.99425
H          1.72929        0.03369       -2.14790
H          4.23386        0.14997       -1.20713
H          3.16392       -0.63607       -0.00907
H          3.14866        1.45211        1.35621
H          4.15134        2.27190        0.16170
H          6.03153        0.64920        0.59684
H          5.03698       -0.19072        1.79522
H          5.82781        3.63537        2.09722
H          5.23376        0.53678        5.47999
H          3.46606        0.61344        7.18900
H          1.55087        3.83768        5.07634
H          3.33271        3.78118        3.37530
H          1.44740        1.51365        8.08505
H          0.29191        2.10020        6.86897
H          1.24500        3.25747        7.80900
H          7.86666        2.13129        4.43588
H          8.40889        2.26468        2.77059
H          8.01433       -0.23018        2.45667
H          7.56991       -0.35947        4.15146
H          9.84537        0.43792        4.82719
H         10.28220        0.64738        3.13348
H          9.96333       -1.82678        2.74656
H          9.56310       -2.04008        4.44978
H         11.84068       -1.18686        5.09353
H         12.23532       -0.95101        3.39438
H         11.59614       -3.67871        4.69585
H         13.21365       -3.11063        4.22750
H         11.98815       -3.43789        2.98360
