47

O          3.61574        1.84128        3.25927
C          3.88217        0.81028        2.36851
O          3.06899       -0.06555        2.22831
C          5.22286        0.97126        1.64818
C          5.75706       -0.20908        0.88877
S          5.82880       -0.00443       -0.78872
O          5.66268        1.40633       -1.14929
O          6.87045       -0.79634       -1.43879
C          4.22997       -0.78227       -1.52303
C          4.09548       -0.79181       -3.07512
F          4.13828        0.45550       -3.58479
F          5.06149       -1.52828       -3.65673
F          2.89664       -1.33761       -3.43790
F          4.14421       -2.08146       -1.10858
F          3.15090       -0.10680       -1.03302
C          6.22176       -1.38402        1.58157
C          6.77510       -2.54601        0.96063
C          7.24118       -3.61989        1.69759
C          7.18412       -3.62427        3.10698
C          6.62329       -2.50704        3.74443
C          6.15449       -1.42917        3.00735
C          7.70919       -4.77881        3.88353
C          9.27579       -4.90237        4.03228
C         10.09525       -3.74223        4.71631
C          9.90205       -3.38107        6.24768
C         10.12453       -4.50861        7.32476
C         10.34731       -3.96224        8.78768
F          9.39054       -3.08134        9.13404
F         10.29757       -5.00395        9.64610
F         11.54953       -3.37346        8.91831
F          9.03905       -5.31628        7.36569
F         11.22141       -5.24943        7.01703
F         10.82249       -2.39934        6.50009
F          8.67016       -2.85216        6.43496
F         11.41561       -4.06396        4.56390
F          9.86940       -2.58682        4.04361
F          9.58575       -6.05320        4.71065
F          9.80380       -5.01443        2.77901
F          7.20633       -4.81508        5.16980
F          7.36147       -5.98783        3.29104
H          4.37415        2.45203        3.24717
H          5.96195        1.31437        2.40195
H          5.09976        1.81545        0.94977
H          6.84379       -2.58577       -0.12334
H          7.65075       -4.48248        1.17055
H          6.53422       -2.48476        4.83069
H          5.70488       -0.60443        3.55865
