24

F         -1.35942        3.53837        1.67322
C         -0.05614        3.54307        1.27289
C          0.53836        2.11529        1.22384
N          0.51054        1.48885        2.36003
C          1.03556        0.14815        2.41063
C          0.52310       -0.55844        3.67616
C         -1.00949       -0.58261        3.67407
C         -1.61856       -1.16144        4.92277
C         -3.17800       -1.18520        4.94136
F         -3.68570        0.06153        4.83201
F         -3.66233       -1.92695        3.91510
F         -3.65116       -1.72406        6.09263
F         -1.22803       -2.47796        5.12573
F         -1.24042       -0.46899        6.05427
F         -0.17553        1.48307        0.05107
F          1.86365        2.30233        0.55076
F         -0.02601        4.17439        0.06727
F          0.61493        4.34695        2.14521
H          2.14605        0.12917        2.43921
H          0.74224       -0.45930        1.52694
H          0.87419       -0.00105        4.55816
H          0.92904       -1.58068        3.73384
H         -1.38363       -1.16395        2.81667
H         -1.35995        0.45325        3.54026
