28

C          0.84868        0.03669       -0.23156
C          2.37704        0.06033       -0.14227
C          3.00307       -1.33580       -0.06849
C          4.53097       -1.33277        0.04139
C          5.15738       -2.73524        0.02545
C          6.68733       -2.75282        0.15484
Al         7.56312       -4.54002       -0.01048
S          7.15375       -5.57759        2.23634
O          7.50355       -6.99651        2.35710
O          7.45843       -4.72658        3.39222
F          5.42410       -5.61935        2.25255
N          6.81927       -5.63695       -1.27843
H          0.42489        1.05009       -0.29454
H          0.40907       -0.45573        0.64918
H          0.51330       -0.52150       -1.11928
H          2.68536        0.64371        0.74231
H          2.78975        0.59537       -1.01496
H          2.70500       -1.91097       -0.96405
H          2.57822       -1.88107        0.79289
H          4.83175       -0.81437        0.96942
H          4.95723       -0.73956       -0.78863
H          4.85531       -3.23480       -0.91374
H          4.71258       -3.33426        0.83854
H          6.98567       -2.29355        1.11395
H          7.12913       -2.11002       -0.63201
H          9.17935       -4.59837        0.00566
H          5.81125       -5.78435       -1.26705
H          7.25165       -6.54727       -1.42713
