21

O          2.94850        1.74254        0.39282
B          2.50749        0.37577       -0.02566
C          0.85717        0.31552        0.02130
F          0.25659        1.38972       -0.64930
F          0.27913       -0.80333       -0.57306
F          0.27303        0.35812        1.28512
C          3.20416       -0.70874        0.99769
C          2.76147       -2.18236        0.86705
C          3.04710       -2.84634       -0.48816
C          4.73572       -0.58225        0.92812
H          2.59760        2.38052       -0.24210
H          2.78512        0.13253       -1.21775
H          2.90750       -0.39242        2.01813
H          1.67999       -2.25321        1.06614
H          3.25663       -2.78308        1.65799
H          2.54278       -2.30665       -1.30054
H          2.69764       -3.89190       -0.49904
H          4.12406       -2.85671       -0.71677
H          5.11523       -0.83378       -0.07641
H          5.24681       -1.24647        1.65249
H          5.04091        0.45329        1.13338
