23

C          1.06817       -0.68741       -0.01785
C          2.52587       -0.21941        0.02750
C          3.16414       -0.37037        1.41264
C          3.25952       -1.87205        1.85995
O          3.43807       -2.73214        0.96787
O          3.19811       -2.06155        3.12369
C          4.56076        0.28960        1.44148
C          5.19802        0.45750        2.85108
C          6.29292       -0.56353        3.16719
O          7.49175       -0.30522        2.97442
N          5.85441       -1.74306        3.67608
H          0.62724       -0.54743       -1.01730
H          0.44730       -0.13170        0.70329
H          1.00632       -1.75508        0.23438
H          2.58801        0.83848       -0.29130
H          3.11703       -0.81402       -0.68745
H          2.53477        0.14725        2.15970
H          4.47236        1.29118        0.98626
H          5.24220       -0.28074        0.78771
H          4.40473        0.39803        3.61167
H          5.68349        1.43974        2.92340
H          4.83979       -1.98979        3.59224
H          6.54159       -2.48846        3.71235
