26

C          3.60784        0.87215        1.00119
C          2.92880       -0.27178        0.22355
Al         3.15755       -0.13753       -1.74066
S          1.77136       -1.84945       -2.84948
O          2.41770       -2.36437       -4.07360
O          1.16299       -2.82358       -1.92485
C          0.20685       -0.95349       -3.64606
C         -0.82626       -0.37403       -2.64953
F         -1.49101       -1.34586       -1.99991
F         -0.20638        0.40959       -1.73497
F         -1.75184        0.39896       -3.28715
F          0.64797        0.06903       -4.43505
F         -0.42914       -1.86092       -4.43727
S          5.35127       -0.83270       -2.31913
O          6.19357        0.30753       -1.86158
O          5.73327       -2.18006       -1.83863
C          5.53308       -0.88884       -4.12766
H          3.46081        0.78202        2.09134
H          3.21260        1.85611        0.70327
H          4.69188        0.89562        0.81664
H          1.84757       -0.29601        0.44176
H          3.32150       -1.24645        0.55480
H          2.82516        1.18709       -2.58215
H          5.29130        0.09964       -4.53613
H          4.85374       -1.65704       -4.51592
H          6.58441       -1.14533       -4.31512
