33

C          2.74811       -2.90737       -2.79573
C          2.42707       -2.29876       -1.42897
C          3.09143       -0.94066       -1.17141
Ga         2.39679        0.59173       -2.31782
S          3.91469        0.52088       -4.29924
O          5.33531        0.47270       -3.94237
O          3.48755       -0.34871       -5.40362
F          3.74643        2.07905       -4.97277
C          0.54061        0.46529       -3.07793
C         -0.53149        0.99712       -2.33417
C         -1.85399        0.93407       -2.78621
C         -2.16448        0.34034       -4.01833
C         -1.10671       -0.19252       -4.76903
C          0.21388       -0.13401       -4.30893
C         -3.58376        0.31082       -4.53424
C          2.95107       -0.52946        0.30178
H          2.26441       -3.88837       -2.92227
H          3.83311       -3.04708       -2.91935
H          2.41413       -2.26073       -3.61897
H          2.74026       -3.01380       -0.63914
H          1.33129       -2.20208       -1.32116
H          4.16727       -1.02661       -1.40442
H          2.74525        2.02076       -1.72385
H         -0.33509        1.48847       -1.37542
H         -2.65889        1.35804       -2.17659
H         -1.32070       -0.66182       -5.73478
H          1.00847       -0.54645       -4.93630
H         -4.30762        0.17477       -3.71706
H         -3.72939       -0.50368       -5.25826
H         -3.84579        1.25199       -5.04571
H          1.89363       -0.40217        0.59020
H          3.46006        0.42286        0.51119
H          3.37426       -1.29459        0.98144
