37

N          3.41496       -1.34766       -0.10354
C          2.77799       -0.08317       -0.51518
C          3.54229        1.12612        0.02629
C          4.99132        1.25169       -0.45797
Ga         5.31595        1.37891       -2.42454
S          3.54594        3.03898       -3.10159
O          2.22859        2.39018       -2.91701
O          3.72355        4.38079       -2.51730
C          3.47902        3.53553       -5.02830
C          3.51641        2.44148       -6.13635
C          2.39270        1.34468       -6.11450
C          2.28655        0.49557       -7.43708
F          3.48144       -0.00819       -7.80168
F          1.44173       -0.53827       -7.22037
F          1.79374        1.21985       -8.46075
F          2.63940        0.46926       -5.11221
F          1.17493        1.91611       -5.92661
F          3.44829        3.06602       -7.36363
F          4.72039        1.80803       -6.06662
F          2.35248        4.28176       -5.18661
F          4.55426        4.34435       -5.28256
S          7.44417        2.50737       -2.54886
O          7.62126        3.46841       -1.43664
O          8.46389        1.43584       -2.68102
C          7.59298        3.50417       -4.06518
H          2.93781       -2.14158       -0.53131
H          3.32664       -1.46626        0.90783
H          1.71847       -0.00259       -0.19897
H          2.77673       -0.04793       -1.61533
H          3.52857        1.07627        1.13405
H          2.96993        2.02725       -0.24059
H          5.57991        0.37890       -0.13575
H          5.46854        2.14351       -0.02719
H          5.23508        0.31307       -3.56655
H          6.85909        4.31680       -4.02891
H          7.43099        2.85651       -4.93480
H          8.61827        3.89787       -4.05713
