46

Br         1.99822       -0.01389        1.09242
N          3.37104       -0.25079       -0.27152
C          3.61903        0.85255       -0.98628
C          4.63909        0.68912       -2.00304
C          5.01161        1.72380       -2.83353
C          4.43456        3.02621       -2.75544
C          3.44491        3.19006       -1.75558
C          3.04411        2.16846       -0.90934
Si         5.05955        4.39209       -3.81809
C          6.95400        4.57913       -3.55445
C          7.30121        4.56663       -2.06288
C          8.74528        4.83418       -1.66356
C          9.75487        3.62693       -1.58193
C         10.14204        2.77244       -2.85032
C         10.82804        3.41960       -4.11866
C         12.21260        4.17922       -4.01508
C         13.47210        3.41569       -3.46063
F         13.65182        2.24245       -4.09544
F         14.55969        4.18833       -3.68200
F         13.38293        3.19204       -2.14210
F         12.52022        4.53428       -5.29721
F         12.06324        5.31026       -3.28813
F         11.01330        2.38917       -4.99464
F          9.96805        4.29901       -4.68760
F         10.99654        1.80011       -2.41034
F          9.02276        2.15709       -3.30921
F         10.92791        4.09043       -1.05340
F          9.23434        2.72232       -0.70549
F          9.33241        5.80817       -2.44274
F          8.76342        5.32847       -0.36927
C          4.84932        4.08751       -5.68102
C          4.25340        6.05828       -3.39847
H          5.10695       -0.29351       -2.09121
H          5.79130        1.52013       -3.57800
H          2.96317        4.16604       -1.63064
H          2.27536        2.34929       -0.15777
H          7.30607        5.50639       -4.03264
H          7.43626        3.74646       -4.08353
H          6.98112        3.62148       -1.59876
H          6.73840        5.35576       -1.53897
H          5.27263        3.11212       -5.96108
H          5.34550        4.86331       -6.28460
H          3.78265        4.07281       -5.94665
H          4.41421        6.33871       -2.34790
H          3.16789        6.02099       -3.56821
H          4.66786        6.85617       -4.03216
