37

C          0.93954       -0.27120       -0.40201
C          2.46748       -0.27028       -0.49874
C          3.04196        1.01475       -1.10326
C          4.57097        1.03010       -1.19874
C          5.15322        2.31217       -1.81498
C          6.68602        2.34242       -1.90255
Al         7.60578        3.94298       -2.74309
C          6.84666        5.71021       -1.86127
C          7.04822        5.96197       -0.35321
F          6.50252        4.95577        0.38451
F          8.36734        6.02630       -0.04124
F          6.48283        7.12433        0.10142
F          7.37439        6.85738       -2.47731
F          5.44225        5.82698       -2.03843
C          7.35475        4.08277       -4.75597
C          6.02011        3.66158       -5.37528
N          4.96845        4.66433       -5.10551
H          0.55629       -1.20510        0.03605
H          0.47992       -0.15566       -1.39575
H          0.58181        0.56210        0.22196
H          2.79901       -1.13318       -1.10192
H          2.89980       -0.42148        0.50541
H          2.70647        1.87958       -0.50305
H          2.61222        1.16437       -2.11051
H          4.90964        0.16079       -1.79205
H          5.00165        0.89199       -0.19017
H          4.79656        3.17558       -1.22658
H          4.71235        2.44309       -2.82051
H          7.03093        1.45082       -2.46445
H          7.10516        2.21603       -0.88613
H          9.20310        3.94460       -2.38748
H          8.14482        3.41636       -5.15211
H          7.61725        5.09252       -5.12022
H          5.75164        2.65107       -4.99970
H          6.09285        3.56742       -6.47761
H          5.02206        4.95604       -4.12581
H          4.04255        4.25178       -5.23264
