34

C          3.14043       -0.00283        2.94402
S          3.73782       -0.28185        1.25178
C          4.37382        1.40664        0.86203
C          4.91256        1.48192       -0.55535
In         5.83157        3.45340       -1.00921
S          3.57904        4.90752       -0.51094
O          2.33711        4.37497       -1.11057
O          3.54042        5.23166        0.93447
C          3.75259        6.74636       -1.26107
C          3.32410        6.91094       -2.74126
C          3.72234        8.25642       -3.44660
F          3.26402        9.32222       -2.75507
F          5.05603        8.37625       -3.58236
F          3.17458        8.30121       -4.68722
F          3.88790        5.91041       -3.47966
F          1.96946        6.81873       -2.82849
F          3.02971        7.60338       -0.49271
F          5.07834        7.07975       -1.14298
C          7.06200        4.20507        0.69959
O          8.31665        4.79703        0.18530
C          9.17786        5.23965        1.09492
F          9.64157        4.26212        1.94820
F         10.26217        5.75117        0.45890
F          8.68417        6.22555        1.90960
H          2.72210       -0.95089        3.30649
H          2.35319        0.76363        2.96246
H          3.96034        0.29995        3.61078
H          5.15217        1.63367        1.60732
H          3.54376        2.11260        1.01272
H          4.11588        1.29879       -1.28963
H          5.69649        0.72541       -0.72054
H          6.33337        3.86585       -2.63038
H          7.33089        3.38679        1.38379
H          6.51294        4.97436        1.25920
