29

N          0.52866        0.69250       -0.63634
Sb         2.08716       -0.34362        0.41616
C          3.62520       -1.55762        1.58028
C          3.74159       -2.87971        1.12678
C          4.66326       -3.77881        1.66856
C          5.51933       -3.35553        2.69039
C          5.42739       -2.04843        3.15988
C          4.47821       -1.15128        2.62970
C          4.47548        0.20678        3.29574
O          5.46751        0.65853        3.84851
O          3.32382        0.90451        3.33480
C          3.06697       -0.87579       -1.56741
O          4.34097       -0.15415       -1.66084
C          5.06370       -0.33525       -2.75631
F          4.42397        0.01923       -3.92232
F          6.18602        0.42306       -2.67683
F          5.47416       -1.63480       -2.95364
H          0.59584        1.67993       -0.36580
H         -0.36124        0.36911       -0.24315
H          3.05269        1.13637        0.47037
H          1.35351        0.07058        2.07371
H          1.10438       -1.82863        0.27850
H          3.07796       -3.22344        0.32558
H          4.71913       -4.80319        1.29124
H          6.25291       -4.04120        3.11977
H          6.08498       -1.68493        3.95153
H          2.56279        0.45135        2.85526
H          2.39337       -0.52439       -2.35976
H          3.25984       -1.95360       -1.65538
