59

Br         0.77776       -1.66443        1.62448
Ta         2.80012       -0.74855        0.44751
C          3.17680        0.74212       -1.21809
C          3.41363        0.37487       -2.71991
C          3.49511        1.55879       -3.75479
F          4.41536        2.48526       -3.41352
F          3.85289        1.06949       -4.97737
F          2.30893        2.18283       -3.91491
F          4.59528       -0.30175       -2.85648
F          2.40934       -0.42303       -3.19358
F          2.12033        1.67640       -1.26665
F          4.32736        1.48747       -0.87620
C          4.34684       -1.80941        1.56023
C          4.95418       -3.06135        1.32377
C          5.84714       -3.62913        2.23265
C          6.21390       -2.96067        3.42309
C          5.63439       -1.69971        3.65421
C          4.71578       -1.14719        2.75161
Si         7.39959       -3.75762        4.64890
C          9.11561       -4.00960        3.85607
C         10.15636       -4.70522        4.74856
C         11.53945       -4.85921        4.10195
C         12.56444       -5.54320        5.01291
C         13.95907       -5.67528        4.39287
C         14.98202       -6.34353        5.31688
C         16.38286       -6.46016        4.70773
C         17.39805       -7.11940        5.64483
C          7.58935       -2.66765        6.18660
C          6.72706       -5.44982        5.17793
H          3.90645       -1.44186       -0.73095
H          1.91630       -1.30921       -0.95674
H          2.79313        0.93167        1.05143
H          4.72031       -3.59825        0.40025
H          6.27631       -4.61190        2.00672
H          5.88734       -1.13994        4.55969
H          4.27563       -0.17163        2.99236
H          9.48878       -3.01846        3.54477
H          8.98110       -4.58024        2.92076
H          9.78959       -5.70501        5.03955
H         10.27357       -4.14427        5.69255
H         11.91509       -3.86253        3.81092
H         11.44069       -5.43115        3.16263
H         12.19338       -6.54564        5.29127
H         12.64202       -4.97776        5.95878
H         14.32649       -4.67341        4.10871
H         13.88812       -6.24872        3.45178
H         14.62171       -7.35024        5.59460
H         15.04472       -5.77506        6.26202
H         16.73961       -5.45484        4.42629
H         16.32244       -7.03339        3.76712
H         17.50508       -6.54814        6.57929
H         18.39256       -7.18953        5.18163
H         17.08434       -8.13871        5.91678
H          8.00379       -1.68104        5.93419
H          8.26276       -3.13693        6.91871
H          6.62073       -2.50776        6.68119
H          6.60688       -6.11562        4.31109
H          5.73952       -5.34123        5.64845
H          7.39377       -5.94769        5.89747
