31

C          1.66045        1.84900        1.65964
C          2.92601        1.26047        1.02567
C          3.47063        0.01178        1.74288
C          4.70980       -0.60473        1.08625
In         5.49879       -2.46534        2.06526
C          4.07353       -3.22669        3.62392
C          4.02882       -4.74325        3.81206
C          3.03483       -5.22800        4.88246
C          2.98199       -6.74720        5.02069
N          1.98486       -7.16400        6.02841
Cl         7.38716       -1.57036        3.50522
H          1.29327        2.72820        1.10696
H          1.84322        2.16222        2.69922
H          0.84671        1.10709        1.68138
H          3.71812        2.02853        0.99620
H          2.72155        0.99914       -0.02757
H          2.65530       -0.73344        1.80038
H          3.69333        0.27889        2.79199
H          5.54085        0.11959        1.09345
H          4.49645       -0.83352        0.02740
H          6.24180       -3.68352        1.00735
H          3.06461       -2.84772        3.38288
H          4.37913       -2.73324        4.56143
H          5.03593       -5.11583        4.07104
H          3.77206       -5.23442        2.85545
H          2.02357       -4.85433        4.64908
H          3.31043       -4.78265        5.85674
H          4.00300       -7.12246        5.23628
H          2.68239       -7.18886        4.05549
H          2.22302       -6.74188        6.92864
H          2.02823       -8.17492        6.17023
