31

F          3.88566        2.62324       -0.34263
C          4.43642        1.57947        0.32533
S          3.08143        0.38228        1.03459
O          2.27357        0.07507       -0.16830
O          3.91096       -0.70756        1.59406
In         1.68867        1.72446        2.93147
C          0.75976        3.35608        1.78661
C          0.57164        4.62442        2.36351
C         -0.02861        5.67360        1.65615
C         -0.45853        5.49887        0.33420
C         -0.27080        4.23780       -0.25265
C          0.32247        3.18996        0.45877
C         -1.07469        6.63686       -0.44434
C          3.36595        2.44253        4.22781
O          2.84434        2.60875        5.60683
C          3.67713        3.13209        6.49907
F          4.05786        4.42509        6.21966
F          3.06125        3.15847        7.70968
F          4.84823        2.43582        6.65705
F          5.26886        0.93504       -0.52473
F          5.19157        2.09842        1.33386
H          0.73464        0.39811        3.54799
H          0.89697        4.81543        3.39111
H         -0.16292        6.64688        2.13906
H         -0.59203        4.07354       -1.28622
H          0.46016        2.22847       -0.04353
H         -1.43804        7.42914        0.22530
H         -1.92085        6.29408       -1.05797
H         -0.34393        7.09522       -1.13065
H          3.74987        3.41402        3.88692
H          4.19224        1.72001        4.25865
