25

O          1.73070       -2.09535        0.53688
C          2.76961       -1.17484        0.56705
O          2.68628       -0.23523        1.32387
C          3.91341       -1.48045       -0.37340
C          4.70004       -0.24189       -0.86909
C          5.70824       -0.56269       -1.94802
C          5.34326       -0.41233       -3.33854
C          5.23530        1.03480       -3.93926
F          4.34739        1.80401       -3.25294
F          6.43249        1.66144       -3.89930
F          4.83171        1.03985       -5.24503
F          6.18155       -1.07437       -4.21793
F          4.00172       -0.93127       -3.62445
S          7.15531       -1.33692       -1.49740
O          8.32634       -0.88694       -2.25617
O          7.21754       -1.31021       -0.02529
C          7.05253       -3.11264       -1.90603
H          1.94472       -2.75336       -0.14714
H          3.54815       -2.04676       -1.24596
H          4.61474       -2.13658        0.17106
H          5.18645        0.22425       -0.00275
H          3.97830        0.49144       -1.25565
H          6.92821       -3.21356       -2.99000
H          6.19904       -3.55024       -1.37409
H          7.99119       -3.57969       -1.57881
