17

C          0.99476       -0.05341        0.01815
C          2.52656       -0.09334        0.05003
C          3.08532       -1.19644        0.95738
C          4.60965       -1.24306        0.99426
S          5.26224       -2.56872        2.08218
O          4.72335       -2.24737        3.42156
O          4.72745       -3.82016        1.50322
O          6.72811       -2.42839        1.97036
H          0.61457        0.74521       -0.63770
H          0.58316        0.11583        1.02532
H          0.58268       -1.00830       -0.34369
H          2.91181        0.88625        0.38452
H          2.91128       -0.23260       -0.97584
H          2.71218       -2.17943        0.62455
H          2.71323       -1.05921        1.98640
H          5.03518       -0.30257        1.37760
H          5.03457       -1.43530       -0.00317
