8

F          1.36083       -0.15285        0.37191
In         3.38780       -0.25755        0.25083
C          4.10461        1.90308        0.46221
F          3.11869        2.81946        0.77338
F          5.04600        2.05151        1.48398
F          4.72955        2.42471       -0.65367
F          3.76635       -0.73754       -1.68907
H          4.02641       -1.47108        1.33513
