75

C          0.81403       -0.15496       -0.03001
C          2.33507       -0.01642       -0.13818
C          2.87977        1.26630        0.50019
C          4.40142        1.40836        0.39538
C          4.95400        2.68998        1.02769
C          6.47763        2.81424        0.92625
C          7.04221        4.09516        1.55268
C          8.57245        4.19730        1.47693
Si         9.30182        5.80997        2.17774
C          8.58388        7.27548        1.26219
C          8.00114        8.38102        1.91197
C          7.48654        9.45821        1.18336
C          7.51821        9.51419       -0.22635
C          8.09977        8.39403       -0.86014
C          8.61577        7.30771       -0.14773
Al         6.83912       11.15357       -1.23268
C          8.34827       12.56538       -1.29726
C          7.92484       13.95676       -0.79812
C          6.82185       14.61745       -1.63101
C          9.61891       12.11056       -0.56312
C          6.27884       10.61126       -3.11028
C          5.58022       11.71891       -3.90886
C          5.08726       11.32035       -5.31003
C          4.34671       12.43658       -6.05603
C          3.85781       12.03154       -7.45011
C          8.92947        5.90188        4.03404
C         11.18172        5.72953        1.94710
H          0.45514       -1.08156       -0.50062
H          0.30202        0.68669       -0.52067
H          0.48809       -0.16779        1.02125
H          2.63201       -0.04518       -1.20056
H          2.81911       -0.88962        0.33236
H          2.58184        1.29797        1.56364
H          2.39779        2.14068        0.02830
H          4.69660        1.37313       -0.66844
H          4.88154        0.53278        0.86857
H          4.65512        2.73074        2.09059
H          4.48386        3.56712        0.55003
H          6.77731        2.77252       -0.13620
H          6.94797        1.93629        1.40575
H          6.71640        4.14967        2.60657
H          6.59392        4.97195        1.05585
H          8.89708        4.11667        0.42424
H          9.04017        3.34383        2.00052
H          7.94603        8.40447        3.00546
H          7.03697       10.29030        1.73694
H          8.15093        8.36374       -1.95425
H          9.05374        6.46888       -0.70212
H          5.55026       11.74846       -0.38374
H          8.60646       12.67044       -2.37228
H          8.80341       14.63991       -0.76767
H          7.57767       13.88099        0.24950
H          7.12860       14.71580       -2.68483
H          6.57542       15.62474       -1.25903
H          5.90171       14.01489       -1.60871
H          9.43148       11.95242        0.51270
H         10.44146       12.85344       -0.63689
H         10.00180       11.15345       -0.94903
H          5.60739        9.73401       -3.03742
H          7.16505       10.25871       -3.67425
H          6.25777       12.58614       -4.01673
H          4.71588       12.09933       -3.33259
H          4.42525       10.43958       -5.22055
H          5.95032       10.98472       -5.91424
H          5.00631       13.31799       -6.13836
H          3.48645       12.76512       -5.44710
H          4.69884       11.73906       -8.09803
H          3.32014       12.85017       -7.95300
H          3.17475       11.16966       -7.39630
H          7.84853        5.93874        4.22817
H          9.38130        6.79666        4.48512
H          9.33917        5.02095        4.54995
H         11.43512        5.70017        0.87760
H         11.61201        4.83735        2.42648
H         11.66306        6.61933        2.37683
