106

C          0.51828        0.98586       -0.74950
C          1.72617        0.12670       -0.36322
C          2.64074       -0.21770       -1.54429
C          3.85296       -1.07960       -1.16976
C          4.77329       -1.44105       -2.34015
B          6.03683       -2.42272       -1.93810
C          6.99645       -1.66567       -0.86382
C          7.93022       -0.67810       -1.25156
C          8.70281        0.02503       -0.32752
C          8.59127       -0.21784        1.05925
C          7.66969       -1.20460        1.46027
C          6.90149       -1.90020        0.52306
Si         9.72936        0.64670        2.25747
C         11.52449        0.10405        1.88032
C         11.60840       -1.40951        1.65199
C         12.98728       -2.05512        1.62710
C         13.81223       -2.05363        0.28372
C         14.34850       -0.72280       -0.37763
C         15.32555        0.25552        0.38552
C         16.74342       -0.23372        0.89014
C         17.77051       -0.82497       -0.14822
F         17.89895       -0.02447       -1.22137
F         18.97395       -0.91308        0.46203
F         17.41839       -2.05252       -0.55390
F         17.33368        0.87707        1.42104
F         16.58780       -1.14353        1.88046
F         15.55189        1.28783       -0.47643
F         14.69313        0.75793        1.47536
F         15.00145       -1.09321       -1.51508
F         13.27842        0.03141       -0.74372
F         14.89920       -2.86259        0.45589
F         13.01593       -2.61782       -0.66659
F         13.80322       -1.56862        2.62374
F         12.83551       -3.40550        1.88818
C          9.66686        2.52904        2.08249
C          9.34426        0.17582        4.05013
C          6.90116       -2.92739       -3.22073
C          7.92329       -3.89218       -3.05952
C          8.66639       -4.38513       -4.12882
C          8.43933       -3.93620       -5.45021
C          7.44117       -2.96115       -5.62544
C          6.70079       -2.47741       -4.54115
Si         9.47768       -4.60068       -6.84896
C         11.31644       -4.23966       -6.47198
C         11.52652       -2.78167       -6.04902
C         12.95866       -2.27234       -5.94083
C         13.74088       -2.47452       -4.58828
C         14.10472       -3.90827       -4.03504
C         15.00937       -4.91446       -4.84969
C         16.49261       -4.53918       -5.25418
C         17.52339       -4.14546       -4.12964
F         17.51986       -5.04274       -3.12752
F         18.75708       -4.13136       -4.68268
F         17.27639       -2.92678       -3.63142
F         16.99077       -5.65995       -5.85348
F         16.47802       -3.54196       -6.16956
F         15.08624       -6.03693       -4.07949
F         14.38048       -5.24682       -6.00492
F         14.73928       -3.71494       -2.84461
F         12.94484       -4.57088       -3.78173
F         14.91315       -1.77949       -4.67079
F         12.98347       -1.90633       -3.60825
F         13.75454       -2.74184       -6.96141
F         12.94127       -0.89490       -6.07856
C          9.31077       -6.47656       -7.02185
C          9.03943       -3.78388       -8.49967
H         -0.11514        1.22164        0.11923
H         -0.11326        0.47290       -1.49170
H          0.83629        1.94021       -1.19778
H          1.37645       -0.80854        0.10750
H          2.31645        0.64722        0.41064
H          2.99297        0.71869       -2.01517
H          2.05017       -0.73779       -2.32124
H          3.49895       -2.01172       -0.69184
H          4.43460       -0.55454       -0.39083
H          5.13662       -0.49882       -2.80060
H          4.16349       -1.93703       -3.12104
H          5.58487       -3.44052       -1.38611
H          8.05364       -0.46198       -2.31742
H          9.41288        0.77617       -0.69351
H          7.54842       -1.43922        2.52252
H          6.19553       -2.66049        0.86937
H         12.16979        0.40994        2.71791
H         11.86276        0.65886        0.99597
H         11.08039       -1.69685        0.73141
H         11.09410       -1.94736        2.46487
H          9.85479        2.83010        1.04231
H         10.41860        3.01729        2.72036
H          8.67551        2.90944        2.36542
H          9.45123       -0.90431        4.22301
H          8.31499        0.45372        4.31744
H         10.02686        0.69683        4.73690
H          8.12783       -4.26930       -2.05267
H          9.43905       -5.13847       -3.93450
H          7.23017       -2.56934       -6.62568
H          5.93063       -1.72497       -4.73198
H         11.91416       -4.47626       -7.36539
H         11.63557       -4.93368       -5.68398
H         11.01609       -2.57244       -5.09755
H         11.07025       -2.10282       -6.78693
H          9.53555       -6.97350       -6.06761
H          9.99334       -6.87675       -7.78625
H          8.28289       -6.74632       -7.30239
H          9.17567       -2.69359       -8.46763
H          7.99123       -3.97780       -8.76771
H          9.67400       -4.18142       -9.30505
