31

N          1.05447        0.05152       -0.38348
B          2.29060        0.41604        0.43844
C          3.32388        1.46152       -0.32538
C          2.73699        2.83179       -0.82703
C          1.98759        3.71253        0.23710
C          1.78624        5.21875       -0.17599
F          1.24549        5.33387       -1.40651
F          0.93882        5.80805        0.70458
F          2.94157        5.90978       -0.14800
F          0.73992        3.21080        0.45321
F          2.65921        3.73479        1.41732
F          3.75704        3.61330       -1.32954
F          1.86259        2.62588       -1.85859
F          4.42844        1.84472        0.44533
F          3.87593        0.92766       -1.50228
C          3.00888       -1.04107        0.81034
C          4.39480       -1.22533        1.52202
C          4.53426       -0.63686        2.97292
C          6.00752       -0.57593        3.52490
F          6.63423       -1.76783        3.43299
F          6.74693        0.34730        2.88586
F          5.96814       -0.23371        4.83878
F          4.05508        0.62838        3.04459
F          3.83093       -1.41427        3.84684
F          4.67098       -2.57057        1.64437
F          5.39104       -0.69466        0.75236
F          2.13574       -1.77260        1.61784
F          3.17126       -1.81852       -0.34716
H          1.25843       -0.19208       -1.35208
H          0.34563        0.77995       -0.39478
H          1.97519        0.94949        1.49098
