16

Cl         1.09589       -0.28627       -0.13825
Nb         3.40393        0.17222       -0.07922
C          4.38992       -1.63812        0.78192
C          4.66709       -2.97004        0.05498
F          3.54137       -3.40612       -0.56789
F          5.63858       -2.84781       -0.87425
F          5.06113       -3.96538        0.90631
F          5.60838       -1.20666        1.30808
F          3.60942       -1.99376        1.90758
C          4.60225        1.88655       -0.92010
F          3.88009        3.08083       -0.89426
F          5.72997        2.12609       -0.12849
F          5.11730        1.85721       -2.20179
H          3.60216        1.49371        1.08900
H          4.62769       -0.41645       -1.17393
H          3.14099        0.42992       -1.76473
