54

C         -1.32044       -1.02451       -0.48226
C         -1.48518       -2.22050        0.46440
C         -0.24269       -2.41588        1.34372
In         1.67228       -2.97825        0.32956
C          3.27462       -1.27240        0.58838
C          3.13955       -0.17850        1.67508
C          3.23536       -0.65590        3.15995
F          2.36402       -1.64787        3.42468
F          4.47635       -1.08343        3.47050
F          2.94387        0.38118        3.99233
F          4.09326        0.81505        1.55015
F          1.91806        0.43042        1.53338
F          4.57100       -1.79593        0.75591
F          3.34090       -0.53719       -0.60521
C          2.53128       -4.71497        1.46385
C          1.68391       -5.56705        2.20067
C          2.16506       -6.67000        2.91371
C          3.53980       -6.98227        2.93347
C          4.39874       -6.13006        2.21119
C          3.90406       -5.03137        1.49835
Si         4.16193       -8.50546        3.82456
C          3.61063      -10.04638        2.83541
C          4.06086      -11.38782        3.42299
C          3.60105      -12.59623        2.63590
F          4.06486      -12.59673        1.35441
F          4.03847      -13.76330        3.20665
F          2.24295      -12.68914        2.56274
C          6.05154       -8.51395        3.94959
C          3.43127       -8.63560        5.56873
C         -2.76119       -2.05520        1.31078
H         -0.44907       -1.15753       -1.13902
H         -1.16283       -0.09883        0.09529
H         -2.21044       -0.87964       -1.11537
H         -1.62186       -3.12262       -0.16130
H         -0.43486       -3.20626        2.08964
H         -0.05746       -1.49457        1.92165
H          1.62955       -3.22194       -1.42059
H          0.60716       -5.36785        2.22793
H          1.45291       -7.29469        3.46550
H          5.47659       -6.32264        2.20363
H          4.61767       -4.39991        0.96213
H          3.99184       -9.93564        1.80831
H          2.51220      -10.01698        2.75857
H          3.68102      -11.52872        4.44628
H          5.15808      -11.45660        3.47405
H          6.52342       -8.51253        2.95676
H          6.41238       -9.40032        4.49217
H          6.40997       -7.62627        4.48990
H          2.33215       -8.62840        5.54219
H          3.75103       -7.78097        6.18172
H          3.75056       -9.55461        6.08285
H         -2.68431       -1.15809        1.94717
H         -2.90777       -2.91912        1.97658
H         -3.66399       -1.94883        0.68533
