29

O          2.43597        2.54742       -1.97505
C          1.95489        1.36322       -1.45999
O          0.82512        1.33648       -1.01522
C          2.89810        0.19762       -1.53873
Al         4.80446        0.57920       -1.06012
S          5.24740        1.03001        1.27649
O          6.65558        1.41803        1.45772
O          4.20069        1.90874        1.82254
C          5.18406       -0.58471        2.40623
C          3.76386       -1.13504        2.70549
C          3.69035       -2.56744        3.34589
F          4.13045       -3.51742        2.50102
F          4.42294       -2.62633        4.47939
F          2.40588       -2.85508        3.66357
F          3.12207       -0.29454        3.55587
F          3.06865       -1.19908        1.53090
F          5.90971       -1.54931        1.76744
F          5.80235       -0.28139        3.57609
C          6.05724       -0.95992       -1.66728
C          6.38927       -0.99725       -3.17761
F          5.24125       -1.01584       -3.91255
F          7.08843        0.10522       -3.54130
F          7.11820       -2.08109       -3.54749
F          7.28764       -0.97323       -1.02283
F          5.46352       -2.19972       -1.39465
H          3.40861        2.46771       -2.09414
H          3.01888       -0.05437       -2.60931
H          2.44163       -0.66953       -1.04946
H          5.22113        2.02833       -1.64992
