32

S          1.12221       -0.34801        0.36046
B          2.84688        0.30463       -0.38453
C          3.64129       -0.88327       -1.14941
C          4.17723       -0.69084       -2.43732
C          4.86702       -1.69701       -3.12726
C          5.06635       -2.95877       -2.55348
C          4.54505       -3.17108       -1.26559
C          3.84923       -2.16483       -0.59279
C          5.80230       -4.05517       -3.28817
C          3.60779        0.94127        0.90246
C          4.81556        0.45598        1.43585
C          5.42812        1.03884        2.55419
C          4.86099        2.14304        3.19997
C          3.65675        2.64739        2.67826
C          3.05584        2.06203        1.56440
C          5.51208        2.77351        4.40825
H          0.53323       -0.67440       -0.81502
H          2.58547        1.20486       -1.18208
H          4.03763        0.28309       -2.91709
H          5.25333       -1.50249       -4.13410
H          4.68174       -4.14800       -0.78846
H          3.42513       -2.37668        0.39276
H          6.12343       -3.71908       -4.28478
H          5.17236       -4.94920       -3.42506
H          6.70216       -4.38089       -2.74090
H          5.29418       -0.40630        0.96401
H          6.36688        0.62275        2.93610
H          3.18481        3.51198        3.15801
H          2.11389        2.47129        1.18851
H          6.43239        2.24006        4.68654
H          4.84246        2.76274        5.28383
H          5.77964        3.82718        4.22517
