15

F          1.09135        0.11832        0.37637
C          2.44906       -0.14496        0.18712
In         2.96330       -2.38018       -0.12759
C          2.48154       -3.10136        1.95876
O          3.07029       -4.45538        2.17074
C          2.79585       -5.06413        3.30863
F          3.19411       -4.38366        4.43933
F          1.45634       -5.32928        3.50868
F          3.43462       -6.26762        3.33494
F          2.81240        0.71826       -0.84461
F          3.05054        0.41643        1.31580
H          4.68959       -2.49033       -0.46672
H          1.83902       -3.03125       -1.32167
H          1.39798       -3.18237        2.12794
H          2.90769       -2.43599        2.72377
