23

Br         3.55375        1.22601        1.66445
Ta         3.52471       -0.66460        0.01393
C          1.47608       -0.50910       -0.89308
F          0.49569       -0.42641        0.10875
F          1.20277        0.56522       -1.71386
F          1.11208       -1.63241       -1.62003
C          4.95522       -2.27570       -0.41551
C          4.81079       -3.18913       -1.47619
C          5.68909       -4.26769       -1.65182
C          6.77285       -4.47167       -0.79031
C          6.94082       -3.55686        0.26480
C          6.05322       -2.49750        0.44639
C          7.73056       -5.62269       -0.98040
H          3.24251       -2.02780        1.15305
H          3.64373       -0.64377       -1.75149
H          5.02574        0.06730       -0.54790
H          3.99683       -3.05511       -2.19464
H          5.53506       -4.95664       -2.48947
H          7.78095       -3.68237        0.95646
H          6.22314       -1.81977        1.29101
H          7.47473       -6.20545       -1.87678
H          7.71609       -6.31175       -0.12021
H          8.76975       -5.27421       -1.09333
