20

N          1.54600        3.77607       -1.35303
N          1.80674        2.36719       -1.59772
S          2.27567        1.55552       -0.33466
O          1.90223        2.13235        0.96906
O          2.09650        0.12221       -0.54754
C          4.21500        1.67796       -0.24557
C          5.02437        1.15547        0.98079
C          4.94206       -0.36254        1.39431
C          5.36957       -1.46384        0.35832
F          6.60426       -1.21604       -0.13386
F          5.42268       -2.65664        1.01248
F          4.51182       -1.58769       -0.65287
F          5.80646       -0.50702        2.45553
F          3.70054       -0.66115        1.83067
F          6.36730        1.41812        0.77164
F          4.65621        1.85350        2.08941
F          4.75393        1.07895       -1.35816
F          4.53936        3.02031       -0.32505
H          2.42072        4.28536       -1.52649
H          1.35000        3.90149       -0.34930
