27

S          1.20714       -0.53098        0.33894
Al         3.19890        0.47863       -0.21731
C          4.15120        0.93457        1.61775
C          5.67223        1.24894        1.73233
C          6.18084        2.49114        0.92729
C          7.74137        2.69134        0.88619
F          8.27659        2.77051        2.12153
F          8.35960        1.70078        0.21574
F          8.01540        3.85507        0.24402
F          5.78067        2.39507       -0.36946
F          5.66610        3.63343        1.46146
F          6.05279        1.45356        3.04238
F          6.37411        0.15771        1.28118
F          3.51249        2.02843        2.23255
F          3.99939       -0.12651        2.52521
C          4.22049       -0.87816       -1.28986
C          3.68637       -1.01791       -2.72445
C          4.36613       -2.11691       -3.55351
H          0.58190        0.63013        0.64042
H          2.94180        1.90877       -0.94233
H          4.15317       -1.85606       -0.77697
H          5.29769       -0.63252       -1.31944
H          3.79582       -0.05360       -3.25114
H          2.60025       -1.21368       -2.69752
H          5.45186       -1.94305       -3.62126
H          3.96743       -2.17313       -4.58059
H          4.22321       -3.10273       -3.08321
