28

F          1.33841       -0.01927        0.34959
Sb         3.01530       -0.20159       -0.84000
C          3.87651        1.84844        0.17521
C          3.44711        3.26463       -0.26681
C          2.01082        3.72909        0.13744
F          1.06485        2.89055       -0.30090
F          1.88827        3.86721        1.47494
F          1.76821        4.95576       -0.41332
F          4.29313        4.24763        0.22644
F          3.52185        3.33855       -1.63454
F          3.75098        1.82173        1.56321
F          5.25884        1.82565       -0.06499
C          3.96945       -1.17267        0.91653
C          4.03694       -2.68128        0.75272
C          4.69038       -3.40590        1.93977
C          4.76473       -4.92437        1.75425
H          4.48242       -0.23065       -1.83855
H          2.41018       -1.73940       -1.48098
H          2.11155        0.76888       -1.97721
H          3.35727       -0.87339        1.77636
H          4.96847       -0.72212        1.00840
H          4.59362       -2.93799       -0.16836
H          3.01933       -3.08428        0.60417
H          4.12566       -3.17015        2.85784
H          5.70474       -3.00051        2.09651
H          3.75969       -5.35613        1.62897
H          5.23864       -5.42209        2.61387
H          5.34531       -5.18346        0.85510
