62

O          2.80850        0.50014        1.77964
C          2.24069       -0.71538        1.43105
O          1.14823       -0.99725        1.86361
C          3.08646       -1.57462        0.53776
C          4.48246       -1.57243        0.74636
C          5.31986       -2.36325       -0.03842
C          4.75578       -3.14057       -1.05295
C          3.37154       -3.13451       -1.25172
C          2.48261       -2.37768       -0.46159
Ga         0.47172       -2.55173       -0.83193
C          0.35603       -3.67224       -2.55472
C          0.37411       -5.07929       -2.50274
C          0.30186       -5.86800       -3.65927
C          0.18873       -5.27165       -4.92021
C          0.15527       -3.87888       -4.99563
C          0.23919       -3.09751       -3.83078
C          0.00141       -3.19919       -6.32805
F          0.17639       -4.04711       -7.38570
F         -1.24146       -2.64579       -6.48575
F          0.89149       -2.17848       -6.49924
C          0.29773       -7.36813       -3.56864
F          0.87413       -7.83518       -2.42852
F         -0.97271       -7.88839       -3.59513
F          0.96049       -7.95869       -4.61191
C         -0.40283       -0.78153       -1.27800
C          0.30137        0.42724       -1.43550
C         -0.33834        1.62456       -1.77108
C         -1.73118        1.67564       -1.98262
C         -2.44501        0.46946       -1.83517
C         -1.79428       -0.71897       -1.48881
Si        -2.57984        3.29159       -2.40390
C         -1.60369        4.15186       -3.80330
C         -2.12025        5.54648       -4.17150
C         -1.34271        6.22438       -5.27947
F         -1.38038        5.52798       -6.44997
F         -1.84409        7.47013       -5.55389
F         -0.02756        6.39844       -4.96700
C         -4.35644        3.00594       -2.99336
C         -2.61670        4.45286       -0.90598
H          3.62647        0.60049        1.26112
H          4.91611       -0.98649        1.56283
H          6.39611       -2.37531        0.14426
H          5.39593       -3.75886       -1.68746
H          2.96284       -3.75364       -2.05448
H         -0.29104       -3.38986        0.27836
H          0.45025       -5.57724       -1.53248
H          0.13758       -5.88025       -5.82165
H          0.21103       -2.00842       -3.92848
H          1.38640        0.44285       -1.29103
H          0.26494        2.53396       -1.86969
H         -3.52785        0.45323       -1.99416
H         -2.39503       -1.62782       -1.38023
H         -1.62816        3.49258       -4.68518
H         -0.54799        4.21358       -3.49610
H         -2.08300        6.22960       -3.30960
H         -3.16674        5.51298       -4.51117
H         -4.38336        2.35302       -3.87745
H         -4.84619        3.95508       -3.25712
H         -4.96369        2.53189       -2.20941
H         -1.59930        4.66671       -0.54834
H         -3.16187        3.98023       -0.07660
H         -3.11055        5.41031       -1.12996
