39

C          1.12858       -0.06672       -0.15603
S          2.91460       -0.24532        0.13237
C          3.31564        1.42718        0.77553
C          4.78645        1.57067        1.09279
P          5.16235        3.43366        1.57837
C          4.95810        3.13291        3.54296
C          5.37158        2.03591        4.31460
C          5.13883        1.96770        5.69950
C          4.48283        3.00375        6.37069
C          4.05918        4.10643        5.60691
C          4.29357        4.15815        4.23345
C          4.23430        2.94551        7.85905
C          7.09029        3.07817        1.66272
C          7.84366        4.21623        2.37754
C          8.85917        3.75520        3.39522
O         10.06211        3.93555        3.33099
O          8.34902        3.09008        4.47716
H          0.76083       -1.02313       -0.55125
H          0.92053        0.72331       -0.89223
H          0.59337        0.15911        0.77773
H          2.70668        1.60284        1.67688
H          3.01522        2.16608        0.01391
H          5.40290        1.36353        0.20430
H          5.08046        0.86980        1.88720
H          5.22814        3.75594        0.12025
H          3.71077        3.75949        1.57580
H          5.42124        4.86114        1.92519
H          5.88728        1.19453        3.84209
H          5.48432        1.09613        6.26410
H          3.54457        4.93509        6.10557
H          3.95553        5.02636        3.65466
H          4.68756        2.04875        8.30333
H          3.15695        2.92433        8.08957
H          4.65529        3.82330        8.37396
H          7.43747        2.97839        0.62340
H          7.26953        2.11105        2.15508
H          7.09204        4.85460        2.89298
H          8.36723        4.86498        1.66546
H          7.37198        3.01011        4.39112
