39

N          4.77984        0.80909       -3.00495
C          5.23944        1.47562       -1.90339
O          5.38257        2.69834       -1.90207
C          5.60020        0.61309       -0.69113
C          4.94496       -0.76890       -0.59790
Ga         5.49383       -1.88678        0.96578
S          3.85585       -3.73963        1.03333
O          4.27756       -5.05377        1.53967
O          2.71072       -3.07292        1.68641
C          3.04004       -4.16919       -0.71232
C          3.90237       -4.95391       -1.73109
F          4.19704       -6.18682       -1.28548
F          3.23899       -5.09216       -2.91697
F          5.04783       -4.28921       -1.97769
F          1.92126       -4.89317       -0.44899
F          2.66304       -2.99659       -1.30816
S          7.70407       -2.51845        0.06457
O          7.71099       -3.29862       -1.18229
O          8.39233       -1.20871        0.05245
C          8.88097       -3.49793        1.30886
C          8.59086       -5.01567        1.55192
C          9.30584       -6.02463        0.57880
C          8.71867       -7.48469        0.60985
F          8.65697       -7.96397        1.86902
F          7.49776       -7.53765        0.06105
F          9.53875       -8.29302       -0.10458
F          9.23653       -5.59839       -0.70144
F         10.61912       -6.11766        0.93866
F          8.99253       -5.35316        2.81870
F          7.24473       -5.20299        1.48442
F         10.16353       -3.33136        0.88860
F          8.73797       -2.86254        2.50720
H          4.57443        1.34307       -3.83979
H          4.64501       -0.19385       -3.00570
H          5.36738        1.23242        0.18691
H          6.69871        0.51511       -0.70675
H          5.19716       -1.39283       -1.47064
H          3.84853       -0.69256       -0.55673
H          5.64992       -1.61236        2.48853
