59

C          9.09794       -2.51266       -5.09597
C          8.56916       -1.90848       -3.79302
C          9.11227       -0.50411       -3.51182
C          8.60677        0.10218       -2.19943
C          9.15443        1.50466       -1.91832
C          8.67669        2.10107       -0.59078
C          9.22183        3.50895       -0.32156
C          8.76369        4.11142        1.01506
Si         9.33570        5.90441        1.32168
C          8.70184        7.01108       -0.05196
C          7.31814        7.09452       -0.31796
C          6.82794        7.87749       -1.36769
C          7.67045        8.62617       -2.21892
C          9.04912        8.54647       -1.92666
C          9.55613        7.76349       -0.88289
Al         7.00545        9.66341       -3.83989
C          5.25204       10.61558       -3.43984
C          5.29833       11.80559       -2.47454
C          3.94862       12.52017       -2.37439
S          3.90759       14.04137       -1.32509
O          8.30637       10.81616       -4.27545
C          8.64638        6.44238        3.00574
C         11.22961        5.94780        1.41085
H          8.69356       -3.51986       -5.27169
H         10.19558       -2.59152       -5.07974
H          8.82693       -1.88880       -5.96098
H          8.82559       -2.57118       -2.94868
H          7.46702       -1.87099       -3.82386
H          8.84487        0.16379       -4.34950
H         10.21630       -0.53892       -3.49521
H          8.87448       -0.56866       -1.36321
H          7.50311        0.13872       -2.21603
H          8.86891        2.18026       -2.74306
H         10.25861        1.47106       -1.92443
H          8.96760        1.43024        0.23807
H          7.57281        2.13487       -0.58051
H          8.91695        4.17651       -1.14473
H         10.32514        3.47456       -0.35556
H          9.10244        3.47781        1.85496
H          7.65988        4.10617        1.06060
H          6.60889        6.53333        0.30297
H          5.74393        7.89790       -1.53180
H          9.74827        9.11781       -2.54671
H         10.63838        7.73489       -0.71584
H          6.73291        8.61850       -5.08936
H          4.50668        9.87575       -3.08721
H          4.87528       10.96231       -4.42226
H          6.06481       12.53184       -2.79069
H          5.59684       11.46913       -1.46535
H          3.16494       11.83354       -2.02225
H          3.63921       12.88709       -3.36540
H          4.38840       13.46046       -0.20027
H          8.50607       10.83933       -5.21882
H          7.54695        6.45529        2.99306
H          8.98453        7.45808        3.25647
H          8.96892        5.76519        3.81119
H         11.68968        5.61735        0.46891
H         11.59427        5.28994        2.21400
H         11.59298        6.96443        1.61881
