46

N          0.80088        2.13525        7.65189
C          2.09879        2.69928        7.73732
N          2.46265        3.66249        8.51853
N          2.97399        2.12135        6.85075
C          4.33367        2.62685        6.65757
C          5.04960        1.81684        5.57886
C          6.50664        2.23851        5.35494
C          7.24442        1.44198        4.27142
B          8.81411        1.88812        4.05398
C          9.54055        1.13684        2.80220
C         10.73750        1.64663        2.25276
C         11.42829        1.01576        1.21494
C         10.95384       -0.17896        0.65149
C          9.75828       -0.69927        1.16616
C          9.07870       -0.05803        2.20934
C         11.71468       -0.88776       -0.44425
C          9.72792        1.62796        5.42889
C          9.81101        0.16395        5.87722
C         10.61662       -0.15275        7.12912
O         10.68109       -1.24098        7.66863
O         11.31409        0.90313        7.65047
H          0.21674        2.39009        8.44286
H          0.80841        1.12443        7.52304
H          1.71458        3.89317        9.17857
H          2.55009        1.71092        6.02426
H          4.86521        2.55430        7.61825
H          4.31362        3.69887        6.39270
H          4.49607        1.91105        4.62519
H          5.01884        0.74730        5.85143
H          7.04197        2.14696        6.31733
H          6.54203        3.31237        5.09794
H          6.69566        1.56578        3.31692
H          7.14851        0.36320        4.51660
H          8.85191        3.11198        3.83437
H         11.13319        2.58594        2.65407
H         12.35242        1.45818        0.82648
H          9.35319       -1.62553        0.74333
H          8.14853       -0.50503        2.57306
H         12.42115       -0.20805       -0.94322
H         11.03850       -1.29511       -1.21157
H         12.30112       -1.73529       -0.05034
H          9.31404        2.24773        6.24798
H         10.74658        2.01109        5.21641
H         10.23941       -0.45746        5.07155
H          8.80780       -0.25898        6.04876
H         11.09533        1.66637        7.06949
