26

C          0.71026       -1.65915        0.03632
C          2.22205       -1.89104       -0.04942
C          2.95445       -0.85038       -0.90465
C          4.47502       -1.07832       -1.00210
B          4.99068       -2.45860       -1.76382
C          4.39085       -2.58418       -3.30520
C          4.76143       -1.44213       -4.26749
C          6.64219       -2.50574       -1.75173
H          0.20885       -2.41547        0.66177
H          0.24749       -1.69679       -0.96311
H          0.47906       -0.66863        0.46291
H          2.43460       -2.89137       -0.45570
H          2.65367       -1.88497        0.96782
H          2.71721        0.15559       -0.49773
H          2.51499       -0.87044       -1.92023
H          4.89238       -1.04892        0.02626
H          4.91436       -0.19250       -1.50709
H          4.58130       -3.45945       -1.12945
H          3.28549       -2.67189       -3.28282
H          4.73951       -3.53895       -3.74735
H          4.38929       -0.47168       -3.89763
H          4.35980       -1.57162       -5.29064
H          5.85565       -1.34082       -4.36020
H          7.11076       -1.64749       -2.27584
H          7.04255       -3.41996       -2.23083
H          7.04779       -2.49085       -0.72194
