42

N          1.58454        3.02250        0.69160
C          2.91118        2.35191        0.85538
C          2.79485        0.95166        1.42698
In         4.79354       -0.08241        1.68229
C          5.95275       -0.30506       -0.27694
C          5.28501       -0.91437       -1.50614
S          3.96410        0.18975       -2.13864
C          3.55037       -0.66170       -3.68571
C          6.05073        1.40663        2.87301
C          7.54693        1.44718        2.55866
C          8.34222        2.49373        3.36245
C          9.84199        2.49708        3.06222
N         10.55194        3.40971        3.95259
C         11.92384        3.54238        3.94882
N         12.79057        2.88366        3.25266
N         12.37605        4.53716        4.84012
H          1.72233        4.01841        0.48896
H          1.10001        2.98470        1.59264
H          3.59167        2.95593        1.48957
H          3.36644        2.31544       -0.14833
H          2.14330        0.33791        0.78584
H          2.33057        0.99280        2.43002
H          4.65190       -1.67956        2.48244
H          6.80045       -0.95530       -0.00054
H          6.38993        0.67128       -0.54688
H          4.82583       -1.88919       -1.27076
H          5.98152       -1.06977       -2.35488
H          2.78689       -0.05776       -4.19407
H          3.13588       -1.66327       -3.49768
H          4.42707       -0.75138       -4.34551
H          5.90148        1.21526        3.95037
H          5.60906        2.39971        2.67190
H          7.70211        1.64022        1.48195
H          8.00059        0.45677        2.74821
H          8.19522        2.30785        4.44007
H          7.92586        3.49738        3.15780
H         10.01392        2.76025        2.00018
H         10.25069        1.48385        3.21225
H         10.02895        4.23076        4.24238
H         12.32504        2.29318        2.55857
H         11.92997        4.49028        5.75398
H         13.38871        4.48495        4.92218
