30

F         -0.12845        1.93302       -1.95355
C          1.18996        1.74747       -2.28338
O          2.02837        2.56609       -1.65530
C          2.02768        2.51060       -0.17299
Al         3.46552        3.76035        0.47965
S          3.28542        3.36581        2.89217
O          3.40863        4.57008        3.72924
O          2.17759        2.43140        3.17187
C          4.90108        2.38388        3.47727
C          4.99190        0.90316        3.01881
C          6.39220        0.21028        3.17846
F          7.30941        0.73853        2.34886
F          6.84239        0.32311        4.44688
F          6.28260       -1.10949        2.89100
F          4.10314        0.15645        3.72479
F          4.67270        0.82948        1.69117
F          5.98863        3.06512        3.00891
F          4.92285        2.42600        4.83541
C          3.06709        5.76956        0.17115
C          1.65382        6.34147        0.41009
F          1.28475        6.17688        1.70164
F          1.55433        7.66833        0.12341
F          0.74519        5.69439       -0.36686
F          3.93382        6.58427        0.89234
F          3.34076        6.03100       -1.18323
F          1.43857        0.41448       -2.05771
F          1.30113        1.95005       -3.61976
H          2.22725        1.47287        0.13393
H          1.02100        2.77733        0.18054
H          4.98637        3.47074        0.08564
