20

F          2.55854        1.09335       -0.60901
C          2.24962       -0.06311        0.07378
B          3.24639       -1.30395       -0.27265
S          3.45420       -1.54829       -2.19058
O          4.18433       -2.78552       -2.47086
O          2.25387       -1.24117       -2.97017
C          4.69727       -0.18281       -2.87362
C          6.00457        0.11917       -2.08887
F          6.65356       -1.01243       -1.75533
F          6.85191        0.86591       -2.85640
F          5.75599        0.82455       -0.96880
F          5.06315       -0.66204       -4.09857
F          4.04769        0.99483       -3.06273
C          2.73940       -2.72118        0.35961
F          2.37950       -2.57715        1.68613
F          1.64026       -3.27858       -0.25157
F          3.69796       -3.70108        0.35699
F          2.32297        0.28564        1.40833
F          0.91764       -0.28540       -0.16758
H          4.35709       -1.06458        0.13241
