61

N          1.95186        0.62390       -1.75804
C          2.23929        0.48228       -0.42222
O          1.73685       -0.41861        0.25555
C          3.22337        1.50716        0.11336
C          4.70363        1.09967       -0.17676
Al         5.76763        2.60607       -0.98025
C          5.08164        2.67527       -2.95493
F          5.57229        3.68709       -3.75745
F          5.33802        1.51045       -3.67814
F          3.67408        2.81733       -3.07510
C          7.74463        2.22529       -1.11593
C          8.71322        3.17176       -0.72087
C         10.08474        2.91859       -0.80451
C         10.56834        1.68622       -1.28786
C          9.61368        0.72981       -1.68520
C          8.24450        0.99789       -1.59823
Si        12.40510        1.42718       -1.52057
C         12.96703        2.54928       -2.95970
C         12.08136        2.37345       -4.19825
C         12.51610        3.07613       -5.48088
C         12.01084        4.54312       -5.75541
C         12.38481        5.74277       -4.80171
C         13.88301        6.18428       -4.56276
C         14.80818        6.65397       -5.75737
C         14.35494        7.86812       -6.65054
F         13.99472        8.92176       -5.89546
F         15.40291        8.23526       -7.42086
F         13.33830        7.53848       -7.45940
F         15.98212        7.02861       -5.17051
F         15.06062        5.60738       -6.57789
F         13.81866        7.22409       -3.68326
F         14.55052        5.16917       -3.95794
F         11.73501        6.83854       -5.29021
F         11.87756        5.47672       -3.56899
F         12.40990        4.89927       -7.01198
F         10.64931        4.50581       -5.74418
F         13.88377        3.07108       -5.63636
F         12.00979        2.37292       -6.55874
C         13.39676        1.93752        0.00563
C         12.80630       -0.37000       -1.95196
H          1.46357       -0.13891       -2.21183
H          2.48400        1.26977       -2.33561
H          3.05244        1.59015        1.19387
H          2.98109        2.49029       -0.32600
H          4.72567        0.25951       -0.89257
H          5.15987        0.70246        0.74262
H          5.48761        4.06288       -0.30637
H          8.38291        4.14305       -0.33814
H         10.78871        3.69729       -0.49002
H          9.94071       -0.24086       -2.07076
H          7.54390        0.22326       -1.92595
H         14.01867        2.33016       -3.19971
H         12.93360        3.58228       -2.58923
H         11.04182        2.66226       -3.98372
H         12.04170        1.31168       -4.48856
H         13.17230        2.97411        0.29381
H         14.47832        1.86321       -0.17935
H         13.14870        1.29290        0.86033
H         12.30945       -0.69606       -2.87628
H         12.48136       -1.04380       -1.14676
H         13.88970       -0.49929       -2.08812
