30

S          2.44114       -1.32579       -0.28757
C          2.21496        0.35540        0.14127
S          3.28514        1.49019       -0.42747
O          3.10122        2.78656        0.23714
O          4.63370        0.97450       -0.66500
C          2.75370        1.93530       -2.23897
C          3.40264        3.12026       -3.01989
C          4.95210        3.13603       -3.31175
C          5.59936        1.94213       -4.10279
F          4.93427        1.70434       -5.25493
F          6.87154        2.29947       -4.43120
F          5.65945        0.81845       -3.39112
F          5.16906        4.24887       -4.09076
F          5.64294        3.29804       -2.16313
F          2.78815        3.21205       -4.25481
F          3.14686        4.28343       -2.36247
F          2.89192        0.82039       -3.03088
F          1.41199        2.23729       -2.20413
C          0.98362        0.78166        0.90910
C          1.10944        0.44187        2.40219
C         -0.14648        0.67325        3.22879
O         -1.14193        1.27807        2.84326
N         -0.10543        0.11740        4.49594
H          3.27311       -1.77286        0.70603
H          0.08564        0.28463        0.50741
H          0.82534        1.86224        0.79823
H          1.92262        1.04643        2.84057
H          1.41687       -0.61241        2.51426
H          0.77020       -0.21796        4.87811
H         -0.83240        0.39531        5.14579
