16

S          0.91347       -0.29794       -0.11185
C          2.74092       -0.10888       -0.01338
C          3.40211       -1.35571       -0.59352
C          4.93455       -1.27358       -0.55049
N          5.46952       -2.49673       -1.11325
S          7.01888       -2.58630       -1.16459
O          7.71195       -1.72945       -2.13344
O          7.72695       -2.74754        0.11053
F          7.12471       -4.08322       -1.84474
H          0.58088        0.89730        0.43240
H          3.02491        0.03154        1.03891
H          3.03217        0.78701       -0.57941
H          3.08749       -1.50326       -1.63880
H          3.08311       -2.25094       -0.03642
H          5.24487       -1.10799        0.50703
H          5.24921       -0.36221       -1.10948
