30

N          1.14267       -0.02730        0.73022
C          2.49538       -0.09193        0.31160
N          3.00667       -0.96599       -0.49126
N          3.26086        0.89129        0.88961
C          4.71641        0.93476        0.74609
C          5.27673        2.12005        1.52967
C          6.80568        2.25320        1.47413
C          7.36808        3.41202        2.30820
Al         9.39396        3.57873        2.30628
C         10.08343        3.67612        4.24667
C         11.50481        4.09252        4.33281
O         12.40151        3.52764        4.94459
O         11.81518        5.23133        3.61437
H          0.53149       -0.59654        0.15244
H          0.78662        0.92474        0.79881
H          2.27255       -1.55044       -0.90050
H          2.91562        1.24015        1.77902
H          4.95428        1.01834       -0.32478
H          5.16969       -0.01120        1.09304
H          4.97335        2.02650        2.59015
H          4.81591        3.05259        1.15942
H          7.11513        2.36448        0.41928
H          7.25804        1.30051        1.80366
H          7.03048        3.30074        3.35680
H          6.92703        4.36400        1.95787
H         10.08367        2.40093        1.40771
H          9.87532        5.09121        1.77573
H          9.91871        2.77951        4.85668
H          9.44156        4.49058        4.62496
H         11.07400        5.37555        2.96612
