31

C          1.10326       -0.99538       -0.07722
Sb         2.87553        0.33977       -0.34263
C          4.54424        1.99318       -0.39169
C          4.04021        3.24834       -0.98048
O          4.48296        3.80931       -1.97523
O          2.95254        3.79757       -0.33767
C          3.77001       -0.33939        1.65579
C          5.20761       -0.81642        1.53377
C          5.76227       -1.39824        2.85008
C          7.19068       -1.89322        2.74700
C          7.76364       -2.52192        4.05382
F          7.71976       -1.63479        5.07751
F          7.04485       -3.61160        4.41849
F          9.04991       -2.90916        3.89889
F          7.32171       -2.86481        1.77733
F          8.05398       -0.87298        2.40952
H          0.25594       -0.53925       -0.60565
H          0.86866       -1.07301        0.99291
H          1.30571       -1.99491       -0.48664
H          3.90106       -0.87406       -1.17960
H          1.94629        1.66219        0.61372
H          2.22469        0.96818       -1.87260
H          5.43230        1.63136       -0.91983
H          4.72571        2.09436        0.68628
H          2.53771        3.08005        0.22053
H          3.11136       -1.13851        2.03336
H          3.67449        0.53318        2.32146
H          5.85609        0.01420        1.21457
H          5.27991       -1.58271        0.74416
H          5.13910       -2.24244        3.18350
H          5.73209       -0.63898        3.64664
