17

C          1.03439        0.28348       -0.04358
S          2.83445        0.06522       -0.17349
C          3.42461        1.30481        1.06837
C          4.93572        1.34088        1.17562
Al         5.63035        2.77139        2.44084
Br         4.70441        2.17215        4.60587
N          5.06138        4.50210        2.10896
H          0.56015       -0.41627       -0.74498
H          0.73524        1.30774       -0.31213
H          0.67829        0.06020        0.97267
H          2.96788        1.04085        2.03489
H          3.02146        2.28204        0.75423
H          5.38474        1.54750        0.18661
H          5.32097        0.35958        1.50188
H          7.25765        2.72625        2.48930
H          4.07130        4.73785        2.13138
H          5.49270        5.02976        1.35203
