30

O          3.66089       -2.22355        0.21994
Sb         3.35999       -0.13683        0.35619
C          4.04585        0.03110       -1.85739
C          4.39976       -1.08439       -2.63780
C          4.85517       -0.93206       -3.95538
C          4.95822        0.34008       -4.53567
C          4.59532        1.45071       -3.77540
C          4.14563        1.29078       -2.45160
C          4.67345        2.83149       -4.36039
F          5.21798        2.85909       -5.61404
F          3.44207        3.42305       -4.46741
F          5.42704        3.68029       -3.59664
C          5.26526       -2.11094       -4.79268
F          5.09993       -3.30399       -4.16967
F          4.56202       -2.18597       -5.97147
F          6.58747       -2.04752       -5.16638
C          1.28667       -0.62083       -0.31823
C          0.39235        0.60969       -0.36391
H          4.55764       -2.38178        0.55487
H          5.07705       -0.00901        0.82334
H          3.13459        1.63973        0.29444
H          2.85009       -0.20811        2.07348
H          4.31809       -2.07967       -2.19300
H          5.31598        0.45958       -5.55784
H          3.87321        2.17805       -1.86797
H          0.93292       -1.36861        0.40571
H          1.37742       -1.10718       -1.29967
H          0.37345        1.12868        0.60872
H         -0.65463        0.36871       -0.62281
H          0.74970        1.33939       -1.10771
