40

C          4.50965       -1.01441       -2.55104
C          4.14271       -0.37489       -1.21004
C          5.04004        0.80963       -0.82957
N          4.64665        1.35882        0.43900
C          5.32783        2.40965        0.88688
C          6.44370        3.06562        0.23144
C          7.07967        4.16608        0.78688
C          6.70295        4.73520        2.03186
C          5.60732        4.09233        2.68802
C          4.95900        2.99815        2.15655
Si         7.50446        6.25490        2.69181
C          6.87797        7.84019        1.79662
C          5.34877        7.91170        1.74419
C          4.80281        9.13030        1.03960
F          5.21071        9.22691       -0.25923
F          3.43302        9.13756        1.01462
F          5.17433       10.30342        1.64535
C          7.13737        6.50178        4.54228
C          9.39061        6.27139        2.45583
H          3.84845       -1.85920       -2.79841
H          5.54396       -1.39355       -2.54257
H          4.43821       -0.28517       -3.37371
H          4.19721       -1.12222       -0.40146
H          3.09786       -0.02344       -1.22712
H          4.99019        1.55960       -1.65918
H          6.10176        0.45366       -0.83645
H          6.79860        2.68309       -0.72743
H          7.91617        4.60637        0.22868
H          5.26554        4.47312        3.65723
H          4.12670        2.53086        2.68996
H          7.27801        7.82516        0.76996
H          7.28949        8.73779        2.28743
H          4.91022        7.92413        2.75415
H          4.94022        7.02659        1.23313
H          6.05891        6.58488        4.74143
H          7.61915        7.41612        4.92094
H          7.51222        5.64997        5.12777
H          9.65598        6.09540        1.40313
H          9.86033        5.47547        3.05122
H          9.83030        7.23433        2.75823
