64

N          0.80938        2.58296       -2.24454
C          2.19018        2.78690       -2.00009
N          2.70892        3.72650       -1.28111
N          2.97508        1.86582       -2.65352
C          4.43350        1.98189       -2.67549
C          5.04812        0.83959       -3.48121
C          6.58037        0.90853       -3.54940
C          7.23511       -0.19001       -4.39507
Ga         9.24320        0.04005       -4.48750
C         10.12114       -0.41054       -2.61434
C          9.74845       -1.66695       -1.78041
C         10.00786       -3.04820       -2.47035
C          9.73956       -4.31801       -1.58144
F         10.60354       -4.40700       -0.55099
F          8.48464       -4.33375       -1.08924
F          9.89834       -5.42641       -2.34616
F          9.19630       -3.16634       -3.55662
F         11.30203       -3.14259       -2.87848
F         10.41956       -1.69546       -0.57265
F          8.40924       -1.60999       -1.48713
F         11.52025       -0.41621       -2.69296
F          9.81794        0.63980       -1.73111
C         10.19076       -1.01090       -5.93264
C          9.54784       -1.94198       -6.77073
C         10.21468       -2.58603       -7.81812
C         11.57694       -2.33439       -8.07919
C         12.23105       -1.40782       -7.24185
C         11.55117       -0.76482       -6.20435
Si        12.46523       -3.15485       -9.50508
C         12.08487       -2.19592      -11.11575
C         12.76741       -2.75291      -12.36971
C         12.43768       -2.00376      -13.64288
F         12.79985       -0.69113      -13.59003
F         13.08650       -2.54144      -14.72414
F         11.10703       -2.03336      -13.93878
C         14.33971       -3.14262       -9.23302
C         11.88154       -4.94367       -9.72673
H          0.22240        3.10651       -1.60201
H          0.54171        1.60009       -2.25615
H          1.97919        4.24831       -0.78773
H          2.56817        1.47366       -3.49759
H          4.79248        1.96571       -1.63609
H          4.73853        2.95768       -3.09360
H          4.64319        0.86021       -4.51100
H          4.74063       -0.12574       -3.04375
H          6.97831        0.87358       -2.52075
H          6.87420        1.89744       -3.94272
H          6.83727       -0.15068       -5.42529
H          6.96991       -1.18372       -3.99700
H          9.66449        1.57709       -4.61970
H          8.49085       -2.17453       -6.60547
H          9.66144       -3.29951       -8.43863
H         13.29070       -1.18236       -7.39988
H         12.09745       -0.04566       -5.58686
H         12.38041       -1.14682      -10.95841
H         10.99174       -2.18976      -11.25080
H         12.48396       -3.80076      -12.55194
H         13.86366       -2.72742      -12.27559
H         14.73263       -2.11774       -9.17173
H         14.87030       -3.65636      -10.04827
H         14.59628       -3.65277       -8.29395
H         10.79711       -4.99219       -9.90094
H         12.09646       -5.52866       -8.82127
H         12.38062       -5.43901      -10.57285
