27

N          2.95270        1.51828        2.61459
C          3.42650        0.77224        1.42679
C          3.89933       -0.63382        1.79979
C          4.41871       -1.46645        0.62250
Al         5.23414       -3.26247        1.09115
C          3.91817       -4.55308        1.95629
C          2.77450       -4.91976        1.03152
S          1.60769       -6.13593        1.80014
C          0.36710       -6.29630        0.48204
S          6.85289       -2.98496        2.74743
H          2.82895        2.50674        2.38682
H          3.68178        1.48308        3.33128
H          4.25329        1.28512        0.89315
H          2.58667        0.70217        0.71405
H          3.06865       -1.15477        2.30730
H          4.70012       -0.54117        2.55812
H          5.19733       -0.89197        0.08321
H          3.60709       -1.61749       -0.11677
H          5.88938       -3.92822       -0.25924
H          3.52729       -4.11693        2.89181
H          4.48289       -5.45777        2.23995
H          3.14216       -5.37566        0.09784
H          2.17207       -4.03681        0.76163
H         -0.39960       -7.00253        0.82804
H          0.81404       -6.68728       -0.44398
H         -0.11438       -5.33031        0.26921
H          7.71859       -2.33498        1.93437
