20

N          2.87405        0.24003       -1.37299
C          2.39335        0.08699        0.01147
C          3.01320       -1.13568        0.69172
C          4.54142       -1.10991        0.84784
C          5.10674       -2.31280        1.60516
Ga         7.11741       -2.28237        1.80504
Cl         7.96714       -2.66241       -0.33489
O          7.74583       -0.55388        2.21007
H          2.31773        0.93370       -1.87348
H          2.76536       -0.64372       -1.87467
H          1.28709        0.01083        0.08002
H          2.68438        0.99586        0.56636
H          2.71888       -2.04409        0.13085
H          2.55040       -1.24163        1.68887
H          4.82942       -0.18012        1.36979
H          5.00778       -1.04587       -0.14771
H          4.83793       -3.25324        1.09263
H          4.66311       -2.37005        2.61695
H          7.76409       -3.35451        2.79135
H          8.02934       -0.16584        1.36913
