52

C          2.11494       -1.87843       -0.16461
C          3.32753       -0.94525       -0.11692
C          3.84969       -0.55075       -1.50218
C          5.06502        0.38054       -1.46070
C          5.58148        0.79715       -2.84853
C          6.79756        1.72558       -2.81152
Nb         7.69672        2.41183       -4.67513
C          6.09542        3.61112       -5.75171
C          5.60098        4.97714       -5.17133
C          6.28479        6.27528       -5.75424
C          6.23258        7.52396       -4.79983
F          4.97744        7.76456       -4.36355
F          7.03916        7.37578       -3.73504
F          6.64870        8.62154       -5.48197
F          7.59034        6.08769       -6.06372
F          5.63279        6.64039       -6.89831
F          4.24958        5.17507       -5.36341
F          5.77817        4.96082       -3.80269
F          6.14344        3.82503       -7.13178
F          4.96418        2.76771       -5.53765
C          9.90461        2.66913       -4.26929
C         10.45858        3.85138       -3.46025
C          9.76812        3.96501       -2.09340
C         10.34168        5.02991       -1.18698
C          9.62405        5.16325        0.19192
F          8.31493        5.45822        0.03250
F          9.70993        4.00436        0.89131
F         10.17955        6.14025        0.94767
F         11.67190        4.78741       -0.89096
F         10.28980        6.27893       -1.76456
H          1.76215       -2.14178        0.84337
H          2.35588       -2.81529       -0.68975
H          1.27547       -1.40959       -0.70017
H          4.14082       -1.42644        0.45296
H          3.06713       -0.03129        0.44359
H          3.03754       -0.06460       -2.07150
H          4.10787       -1.46452       -2.06709
H          5.88325       -0.10764       -0.90146
H          4.80957        1.29044       -0.88919
H          4.76052        1.28368       -3.40062
H          5.82576       -0.11602       -3.42037
H          7.64480        1.23992       -2.28273
H          6.56766        2.65522       -2.25114
H          8.18811        4.10318       -4.71045
H          7.17189        1.71733       -6.20374
H          8.61559        1.08646       -5.40142
H         10.38300        2.66009       -5.26433
H         10.21853        1.71643       -3.79352
H         10.29148        4.78703       -4.01481
H         11.54897        3.75939       -3.29685
H          9.82859        3.00699       -1.55259
H          8.70040        4.19269       -2.24004
