8

F          1.22242       -0.65909        0.61327
Ga         2.64516        0.28453        0.03674
S          4.01543       -1.39931       -1.10321
O          5.08036       -0.78354       -1.89265
O          4.31923       -2.63975       -0.39961
F          2.89181       -1.88234       -2.28126
Br         3.96891        0.83858        1.92623
H          2.34367        1.43489       -0.96620
