10

O          1.06665        0.17556       -0.02273
N          2.48216       -0.12884        0.44920
C          3.00765        1.12468        0.69664
C          4.54128        1.14787        0.68589
O          5.28743        0.59120       -0.09004
O          5.06875        1.94979        1.67603
H          0.79848       -0.72539       -0.25347
H          2.72667        1.67003        1.73174
H          2.68837        1.90438       -0.04814
H          4.26216        2.22782        2.19058
