20

S          1.41189        0.93215       -1.13190
P          2.53744       -0.24313        0.35548
S          4.07561       -1.18360       -1.60895
O          3.95634       -0.46589       -2.90381
O          5.42183       -1.56538       -1.14235
C          3.29061       -2.91693       -2.03490
F          3.22692       -3.70326       -0.92665
F          2.02666       -2.78052       -2.50968
F          4.01672       -3.57492       -2.96664
S          3.94343        1.80434        1.00489
O          3.08829        2.89575        1.51691
O          4.98304        1.25664        1.90282
C          4.98579        2.67524       -0.37227
F          5.73287        1.77471       -1.04003
F          4.19287        3.31252       -1.26154
F          5.81618        3.59323        0.18001
H          2.23765        0.58199       -2.15901
H          3.63049       -0.79573        1.10695
H          1.76793        0.27329        1.44663
H          1.81133       -1.46149        0.18094
