58

C          0.46366       -5.98523        3.04850
O          1.86043       -6.19318        3.10223
C          2.58274       -4.96511        3.10475
C          4.07166       -5.27267        3.18989
O          4.75013       -4.03390        3.15972
C          6.17593       -4.17683        3.24621
C          6.78418       -2.78104        3.29773
C          8.33428       -2.74641        3.19696
C          8.82372       -3.29393        1.85740
C          8.21021       -2.89255        0.65109
C          8.67902       -3.33321       -0.58403
C          9.78849       -4.19860       -0.69543
C         10.39830       -4.59636        0.50711
C          9.92871       -4.15680        1.74840
Si        10.45782       -4.69890       -2.37350
C         11.29582       -3.19022       -3.18939
C         12.36556       -2.53114       -2.31081
C         13.07974       -1.37940       -2.98406
F         12.23484       -0.37536       -3.34857
F         14.02461       -0.82377       -2.17124
F         13.73348       -1.76873       -4.12349
C         11.73779       -6.08442       -2.21116
C          9.07397       -5.26886       -3.53003
C          8.73145       -1.17722        3.22456
O          8.34846       -0.48944        2.26969
O          9.39729       -0.78501        4.24542
C          8.97874       -3.53097        4.37189
C          8.42056       -3.26216        5.77620
O          7.88699       -4.15146        6.43407
O          8.59053       -2.03179        6.23658
H         -0.01513       -6.97329        3.04943
H          0.16601       -5.44164        2.13040
H          0.10216       -5.40891        3.92244
H          2.28189       -4.33895        3.96696
H          2.37305       -4.38938        2.18204
H          4.37076       -5.91732        2.33805
H          4.29116       -5.82888        4.12275
H          6.54280       -4.73457        2.36175
H          6.43363       -4.75565        4.15222
H          6.48164       -2.29677        4.23906
H          6.36152       -2.17157        2.48838
H          7.37660       -2.19443        0.68701
H          8.16629       -2.98238       -1.48524
H         11.26171       -5.26726        0.48838
H         10.44700       -4.49590        2.64481
H         10.51328       -2.45330       -3.43064
H         11.73545       -3.50882       -4.14883
H         13.14976       -3.24601       -2.01861
H         11.92585       -2.13851       -1.38204
H         12.59312       -5.79120       -1.58589
H         12.12868       -6.36296       -3.20086
H         11.29172       -6.98201       -1.76010
H          8.30137       -4.49432       -3.63802
H          8.58544       -6.17115       -3.13586
H          9.46167       -5.50006       -4.53317
H         10.05324       -3.29135        4.40057
H          8.87275       -4.61193        4.20896
H          9.00386       -1.45534        5.43455
