66

Br         3.20378       -2.01501        1.67297
Nb         3.97467       -0.44558       -0.14361
C          5.88468       -0.50011       -1.29119
C          6.03098        0.03283       -2.58882
C          7.25455       -0.00884       -3.27515
C          8.38741       -0.58410       -2.69515
C          8.26341       -1.11838       -1.40729
C          7.04374       -1.07217       -0.72312
C          9.47954       -1.69157       -0.73502
F         10.37544       -2.21950       -1.62423
F         10.17521       -0.74729       -0.02184
F          9.17989       -2.68443        0.14886
C          7.34715        0.50189       -4.68537
F          6.41806        1.45597       -4.97273
F          8.56837        1.05115       -4.96934
F          7.16548       -0.49501       -5.61310
C          5.15252        1.22795        0.65425
C          5.36415        1.22475        2.05151
C          5.90100        2.33243        2.71566
C          6.23817        3.51081        2.02109
C          6.03395        3.51501        0.62546
C          5.52251        2.39782       -0.03790
Si         6.92357        4.98776        2.95103
C          8.58591        4.51880        3.76282
C          9.67028        4.10481        2.75868
C         10.98296        3.74841        3.43429
C         12.14655        3.23358        2.51135
C         12.67463        4.12729        1.32403
C         13.31191        5.55401        1.58105
C         14.57029        5.65439        2.52192
C         15.36060        7.01359        2.40249
F         14.53598        8.06961        2.53462
F         16.27672        7.06096        3.39206
F         16.00667        7.10766        1.22802
F         14.17970        5.53567        3.81268
F         15.44926        4.66148        2.22884
F         13.68920        6.00518        0.34878
F         12.34856        6.38476        2.05424
F         13.60625        3.38676        0.66714
F         11.63822        4.35145        0.46715
F         13.22553        2.93409        3.29351
F         11.71990        2.08311        1.92169
F         11.47753        4.81840        4.15092
F         10.79723        2.73063        4.34235
C          7.19306        6.45957        1.79265
C          5.75477        5.49750        4.34893
H          2.57586        0.56162       -0.58747
H          4.39224       -1.89954       -1.01010
H          3.41893       -0.62442       -1.79479
H          5.16760        0.47540       -3.08929
H          9.33623       -0.61879       -3.22754
H          7.00154       -1.50871        0.27876
H          5.09846        0.34420        2.64530
H          6.04901        2.27206        3.79958
H          6.28484        4.40551        0.04129
H          5.41288        2.44258       -1.12566
H          8.39544        3.69352        4.46660
H          8.93449        5.37246        4.36627
H          9.87200        4.91641        2.04593
H          9.34853        3.23235        2.17024
H          7.88599        6.22373        0.97254
H          7.60496        7.31681        2.34536
H          6.24378        6.77875        1.33921
H          5.57072        4.65800        5.03434
H          4.78249        5.80967        3.94227
H          6.16481        6.33198        4.93659
