38

C          2.46124        0.41511        1.40972
C          2.51864        0.12351       -0.10058
B          3.02676       -1.39219       -0.53560
C          2.04898       -2.58521        0.06434
C          0.56429       -2.57985       -0.34807
C          0.38977       -2.84599       -1.84917
C         -0.27117       -3.58239        0.46406
C          4.57679       -1.71073       -0.05307
C          5.63710       -0.74951       -0.60050
C          7.06996       -1.19871       -0.26169
C          8.16129       -0.26280       -0.72838
C          9.61427       -0.75769       -0.45057
F          9.81146       -0.96918        0.87423
F          9.86158       -1.92394       -1.09618
F         10.54007        0.14135       -0.86272
F          8.10377       -0.03744       -2.08891
F          8.06763        0.97322       -0.11894
H          2.11131        1.43626        1.64972
H          3.45266        0.29813        1.87987
H          1.78732       -0.28650        1.92870
H          3.16374        0.88751       -0.57744
H          1.51361        0.31360       -0.52657
H          3.03191       -1.43920       -1.78706
H          2.08411       -2.56656        1.17486
H          2.46684       -3.57771       -0.21166
H          0.15799       -1.57074       -0.14304
H          0.75654       -3.85634       -2.10156
H          0.97609       -2.12890       -2.43824
H         -0.66851       -2.78709       -2.15595
H          0.09516       -4.60998        0.29725
H         -1.34037       -3.55946        0.18691
H         -0.19412       -3.37772        1.54334
H          4.83891       -2.73755       -0.38015
H          4.66257       -1.72932        1.05472
H          5.47239        0.26388       -0.20082
H          5.52915       -0.67367       -1.69452
H          7.26527       -2.18755       -0.70662
H          7.18222       -1.31155        0.82833
