31

N          3.37192        0.48501       -0.56713
C          2.68545       -0.10441        0.59705
C          3.41823       -1.33360        1.11112
Sb         5.49223       -1.13549        2.06594
C          5.73174        1.08845        1.64405
O          6.75637        1.25894        0.60801
C          7.13057        2.49615        0.32700
F          6.11414        3.32550       -0.08449
F          7.72705        3.15939        1.38117
F          8.04509        2.46521       -0.67786
C          5.49432       -3.36866        2.50365
C          4.80659       -4.37770        1.57518
C          5.49939       -4.76495        0.26929
O          5.42584       -5.89757       -0.18476
O          6.17848       -3.82149       -0.40962
H          2.73402        1.06266       -1.11478
H          3.70542       -0.25864       -1.18286
H          1.62952       -0.37038        0.36420
H          2.63223        0.66486        1.39057
H          3.52202       -2.06384        0.28959
H          2.82760       -1.80917        1.91054
H          7.12783       -1.07156        2.79979
H          4.69394       -0.68612        3.62392
H          6.25502       -1.51415        0.40848
H          6.08991        1.54348        2.57855
H          4.80145        1.54449        1.28591
H          5.02473       -3.42072        3.49838
H          6.56148       -3.60865        2.63121
H          3.80413       -4.01714        1.28595
H          4.63282       -5.34025        2.08198
H          6.17020       -2.90710        0.03245
