40

C          0.84481       -1.03496        0.31650
C          2.23756       -1.12957       -0.32677
C          3.36852       -1.42163        0.66074
Ta         5.46948       -1.77680        0.15477
C          6.60956        0.19772       -0.42618
C          5.82848        1.54547       -0.55016
C          5.41770        2.23837        0.79059
F          4.89722        1.35758        1.67230
F          6.46581        2.85234        1.37592
F          4.47390        3.18778        0.55521
F          6.51724        2.51034       -1.24940
F          4.67227        1.30424       -1.25429
F          7.56684        0.42705        0.60906
F          7.37519        0.16250       -1.58585
C          6.42925       -2.36822        2.06759
C          6.42781       -1.39524        3.27132
C          5.11000       -1.30542        4.05868
C          4.69376       -2.60040        4.76479
C          3.39729       -2.44914        5.56575
H          0.05888       -0.81537       -0.42549
H          0.81495       -0.24217        1.08049
H          0.58044       -1.97976        0.81688
H          2.44554       -0.18396       -0.85554
H          2.23459       -1.91251       -1.10154
H          3.15869       -2.38102        1.18761
H          3.36637       -0.64390        1.45799
H          6.22490       -2.02865       -1.42635
H          4.51945       -2.80139       -0.91558
H          6.10161       -3.40340       -0.05880
H          7.47016       -2.46420        1.69009
H          6.17084       -3.38822        2.39507
H          6.70106       -0.38035        2.93819
H          7.22413       -1.68200        3.98939
H          4.29268       -0.99464        3.38652
H          5.19965       -0.50706        4.81837
H          5.50905       -2.92726        5.43480
H          4.57024       -3.40210        4.01996
H          3.49848       -1.67624        6.34432
H          3.10784       -3.38780        6.06197
H          2.56545       -2.14687        4.91119
