60

C          1.09629        0.18440        0.10456
C          2.46502       -0.15379       -0.50075
C          3.37436        1.05320       -0.75994
B          4.84966        0.69570       -1.42247
C          5.67621       -0.24496       -0.38478
C          6.30727        0.26825        0.77159
C          6.98097       -0.53885        1.68848
C          7.05817       -1.93722        1.51476
C          6.42563       -2.46919        0.37025
C          5.76679       -1.64511       -0.54391
Si         8.05351       -3.01966        2.65671
C          9.80282       -3.28817        1.93175
C          9.78820       -3.80482        0.48841
C         11.16070       -4.04264       -0.09923
F         11.92532       -2.91476       -0.13698
F         11.88098       -4.97297        0.60334
F         11.08932       -4.50801       -1.38312
C          8.28994       -2.23794        4.36368
C          7.25381       -4.72411        2.87385
C          5.67293        2.07116       -1.80855
C          7.04235        1.83832       -2.45815
C          7.80104        3.10777       -2.86764
C          9.18377        2.84539       -3.47511
C          9.93293        4.11216       -3.90484
C         11.32766        3.83841       -4.47722
H          0.47342       -0.71228        0.26349
H          0.53132        0.87053       -0.54748
H          1.21007        0.68652        1.07908
H          2.31940       -0.69818       -1.45087
H          2.98313       -0.86527        0.16537
H          3.50985        1.60346        0.19526
H          2.84338        1.75741       -1.43182
H          4.66186        0.03525       -2.46484
H          6.26893        1.34710        0.95446
H          7.45369       -0.07199        2.55926
H          6.44722       -3.54936        0.18683
H          5.29445       -2.09095       -1.42448
H         10.35793       -3.98322        2.58296
H         10.32972       -2.32180        1.97294
H          9.27244       -3.09558       -0.17612
H          9.25221       -4.76297        0.40676
H          8.81628       -1.27568        4.29369
H          8.87959       -2.89783        5.01692
H          7.31950       -2.05499        4.84578
H          7.09948       -5.23141        1.91118
H          6.26962       -4.62563        3.35287
H          7.87985       -5.37500        3.50239
H          5.81383        2.72180       -0.91851
H          5.05023        2.67179       -2.50166
H          6.91064        1.19433       -3.34721
H          7.67864        1.25455       -1.76796
H          7.91229        3.76291       -1.98369
H          7.18860        3.68149       -3.58804
H          9.07804        2.17369       -4.34649
H          9.80020        2.28971       -2.74536
H         10.01859        4.79251       -3.03964
H          9.32805        4.65445       -4.65235
H         11.96917        3.33676       -3.73665
H         11.83598        4.76480       -4.78393
H         11.27415        3.18052       -5.35841
