59

C          4.49210       -2.47835        7.54501
C          4.55326       -3.10996        6.15110
C          5.28604       -2.24250        5.12222
C          5.30683       -2.84654        3.71397
C          5.99726       -1.94738        2.67426
Ta         8.03816       -2.23127        2.00758
S          8.71771       -0.54738        0.31593
O          8.85950       -0.49047       -1.14714
O          7.36714       -0.16379        0.90745
C          9.71971        1.05315        0.83464
C         11.25882        0.93282        0.67924
F         11.61264        0.72864       -0.60499
F         11.87780        2.07348        1.09792
F         11.73698       -0.08726        1.42151
F          9.29794        2.08090        0.04229
F          9.45993        1.38705        2.12666
C          8.74581       -3.35114        3.82816
C          8.92343       -4.74698        3.97587
C          9.34631       -5.33510        5.17231
C          9.60706       -4.55925        6.31989
C          9.40835       -3.16835        6.20766
C          9.00176       -2.59339        4.99921
Si        10.33519       -5.35990        7.85018
C         12.10583       -5.93776        7.42388
C         12.97673       -4.82686        6.82470
C         14.37095       -5.27619        6.44902
F         14.37040       -6.26707        5.51335
F         15.11150       -4.25140        5.93492
F         15.07274       -5.75772        7.52214
C         10.41995       -4.14426        9.29845
C          9.34846       -6.88648        8.37461
H          3.95793       -3.12028        8.26141
H          3.97515       -1.50662        7.51821
H          5.50249       -2.30183        7.94340
H          3.52747       -3.30927        5.79399
H          5.05044       -4.09234        6.21459
H          6.32043       -2.06916        5.46181
H          4.80437       -1.24866        5.07676
H          4.25965       -3.03631        3.40955
H          5.78751       -3.83940        3.75749
H          5.78040       -0.88114        2.85594
H          5.58516       -2.14462        1.65645
H          7.83761       -2.65816        0.29473
H          8.31029       -3.92937        1.58595
H          9.35166       -1.23932        2.68020
H          8.73734       -5.38912        3.11155
H          9.48495       -6.42198        5.20491
H          9.59554       -2.51824        7.06850
H          8.90925       -1.50295        4.95712
H         12.02081       -6.76593        6.70213
H         12.58281       -6.35272        8.32658
H         13.10361       -3.98828        7.52608
H         12.51768       -4.41569        5.91330
H         11.01613       -3.25311        9.05558
H         10.87641       -4.62254       10.17763
H          9.41577       -3.80094        9.58507
H          9.23983       -7.59407        7.54057
H          8.33840       -6.60088        8.70082
H          9.83845       -7.41568        9.20544
