33

N          0.57574        4.04355       -1.88453
C          2.00646        3.93518       -2.22911
C          2.80461        3.35980       -1.06224
C          4.30211        3.25363       -1.36581
C          5.06257        2.67077       -0.16535
C          6.60102        2.78221       -0.26089
S          7.20046        1.90120        1.24434
O          6.33847        2.27514        2.35402
O          7.46902        0.49402        0.97676
C          8.91976        2.61960        1.76735
C          9.54912        1.77492        2.93479
F          8.71019        1.63837        3.97745
F          9.92833        0.55315        2.51949
F         10.66142        2.41939        3.38126
F          9.81406        2.60559        0.75883
F          8.75732        3.87974        2.22408
C          7.15585        2.10242       -1.52065
F          6.52038        0.90961       -1.79572
F          6.94748        2.87760       -2.62328
F          8.47620        1.82382       -1.47897
C          7.07786        4.42610       -0.19465
O          6.20751        5.14349        0.31773
O          8.20095        4.62437       -0.67348
H          0.06512        4.49367       -2.64598
H          0.47308        4.65903       -1.07441
H          2.46059        4.90066       -2.52827
H          2.09033        3.26268       -3.09896
H          2.38890        2.37347       -0.79644
H          2.66557        4.00751       -0.17822
H          4.70088        4.25373       -1.58882
H          4.45020        2.63069       -2.26120
H          4.75190        1.62451       -0.01067
H          4.79008        3.24643        0.72699
