16

C          2.30024        0.72328       -1.39948
C          2.47166        0.02919       -0.04469
Ga         2.93164       -1.94556       -0.09174
C          1.79863       -3.17404       -1.25636
N          1.98172       -3.11148       -2.73548
I          5.37614       -2.07324       -1.38283
H          2.07687        1.80369       -1.31388
H          1.47810        0.27475       -1.98147
H          3.21317        0.62331       -2.00671
H          1.54388        0.11471        0.55146
H          3.25768        0.52952        0.54386
H          3.22414       -2.51996        1.37991
H          0.73123       -2.98657       -1.03852
H          1.98166       -4.21439       -0.93973
H          2.99427       -3.14763       -2.90564
H          1.73231       -2.16641       -3.03944
