29

O          3.66565        3.09104        1.13435
C          3.14899        1.82855        1.03584
O          2.79874        1.25633        2.05875
C          3.06300        1.24615       -0.33187
In         5.02041        0.54513       -1.18648
C          5.92051       -1.18775        0.07046
C          7.46192       -1.40280        0.10365
C          8.23430       -0.55433        1.17650
C          9.76859       -0.35740        0.88992
F         10.38009       -1.53225        0.63496
F          9.97837        0.47197       -0.15054
F         10.35701        0.19143        1.97877
F          7.70127        0.69257        1.27695
F          8.14076       -1.16376        2.38859
F          7.80267       -2.71314        0.33703
F          7.96668       -1.08538       -1.13893
F          5.49554       -1.23191        1.39410
F          5.42338       -2.36024       -0.51583
C          6.35527        2.41618       -0.92252
C          5.65848        3.47996       -1.62219
O          4.70026        4.13254       -1.19859
O          6.05607        3.74919       -2.92200
H          3.97227        3.43976        0.25176
H          2.73871        1.99204       -1.07113
H          2.37331        0.39565       -0.32450
H          4.98792        0.02310       -2.86765
H          7.36151        2.19059       -1.29221
H          6.33971        2.56538        0.16016
H          6.77804        3.13583       -3.14017
