59

C          2.29236       -0.85064        1.90845
C          2.69544        0.18404        0.83600
C          3.28759       -0.40481       -0.42961
C          2.48336       -0.58132       -1.61497
C          1.03079       -0.02409       -1.63514
F          0.99133        1.33004       -1.48560
F          0.42193       -0.29497       -2.81613
F          0.24354       -0.56061       -0.66267
F          3.04373       -0.03400       -2.81855
F          2.29053       -1.96315       -2.03521
C          4.65124       -0.82850       -0.43084
C          5.30322       -1.45289       -1.55230
C          6.64090       -1.80285       -1.53217
C          7.48280       -1.58565       -0.40614
C          6.84562       -1.00117        0.71362
C          5.50211       -0.65188        0.71411
Si         9.29829       -1.92670       -0.47935
C         10.10220       -0.80118       -1.81328
C          9.65918        0.65921       -1.66274
C         10.33429        1.68114       -2.55839
C         10.17381        1.58229       -4.11924
C          8.73594        1.49210       -4.75674
C          7.68632        2.66752       -4.59449
C          8.07949        4.09796       -5.12618
C          6.85352        5.06465       -5.34265
F          6.07829        5.12131       -4.24751
F          7.33166        6.30463       -5.59440
F          6.10699        4.68657       -6.39405
F          8.90712        4.69838       -4.23757
F          8.71594        3.99867       -6.32430
F          6.58974        2.26145       -5.29524
F          7.34578        2.77408       -3.28946
F          8.92009        1.30216       -6.09510
F          8.12260        0.38701       -4.25910
F         10.80420        2.65357       -4.68846
F         10.82043        0.45698       -4.54283
F          9.91569        2.95005       -2.20908
F         11.70308        1.66646       -2.35818
C         10.14677       -1.55650        1.17768
C          9.72313       -3.70540       -0.98869
H          1.94406       -0.35927        2.83347
H          3.14002       -1.50157        2.16579
H          1.48287       -1.49459        1.53751
H          3.42682        0.88217        1.28229
H          1.82245        0.81216        0.61861
H          4.72892       -1.65523       -2.45433
H          7.05466       -2.26808       -2.43485
H          7.42126       -0.81303        1.62614
H          5.09181       -0.21699        1.62599
H          9.80603       -1.19212       -2.79836
H         11.19967       -0.88135       -1.75762
H          9.87740        1.02896       -0.64711
H          8.57034        0.74561       -1.78695
H         10.00251       -0.51265        1.49131
H         11.22923       -1.74130        1.11011
H          9.74472       -2.19731        1.97559
H          9.21620       -3.97423       -1.92678
H          9.39039       -4.41722       -0.21966
H         10.80547       -3.84150       -1.13746
