7

O          1.51498        0.97071       -0.61285
N          1.62886       -0.03351        0.47497
C          2.61547        0.35593        1.25782
F          2.60078        1.65360        1.88486
F          2.82473       -0.52490        2.29025
F          3.98311        0.47779        0.61099
H          2.40052        0.94337       -1.02019
