41

C          1.25284        0.59498        1.16418
C          2.55181        0.09989        0.50655
B          2.87954        0.67241       -1.00790
C          1.79661        0.17289       -2.16577
C          0.54083        1.04058       -2.32575
C         -0.36796        0.55179       -3.46920
C         -1.62877        1.36163       -3.66785
C         -2.53561        0.88675       -4.84508
F         -1.87197        0.95175       -6.02532
F         -2.93318       -0.39640       -4.66411
F         -3.64982        1.64800       -4.96031
F         -2.43424        1.33681       -2.54631
F         -1.35221        2.68930       -3.92648
C          4.41376        0.24447       -1.46602
C          4.64822       -1.26247       -1.64835
C          6.07123       -1.58560       -2.13695
C          6.34063       -3.05448       -2.37321
C          7.78417       -3.38945       -2.85862
F          8.06372       -2.75770       -4.02517
F          8.70573       -2.99754       -1.94473
F          7.94993       -4.71788       -3.06301
F          6.15338       -3.80103       -1.22724
F          5.49675       -3.58113       -3.33105
H          1.14040        0.27138        2.21586
H          0.36117        0.23210        0.62698
H          1.20456        1.69661        1.15034
H          2.53425       -1.01043        0.51440
H          3.39441        0.37622        1.17221
H          2.84957        1.92249       -0.96689
H          1.47379       -0.87511       -1.98582
H          2.30501        0.15056       -3.15351
H          0.84409        2.08151       -2.51843
H         -0.03729        1.05759       -1.38963
H         -0.67280       -0.49165       -3.29050
H          0.18780        0.56342       -4.42049
H          5.14909        0.62450       -0.72784
H          4.66417        0.74895       -2.42172
H          3.92411       -1.66659       -2.37422
H          4.46589       -1.78991       -0.69883
H          6.81281       -1.22515       -1.40643
H          6.27091       -1.05762       -3.08302
