60

C          1.06947        0.15720       -0.50761
C          2.56275        0.04653       -0.18878
C          3.06471       -1.39849       -0.11169
C          4.55920       -1.51464        0.20026
C          5.02852       -2.96897        0.31130
C          6.55324       -3.18223        0.40294
C          7.28577       -2.83166       -0.98371
O          8.54548       -2.86060       -0.93124
O          6.54229       -2.61197       -1.97674
C          7.20550       -2.30605        1.50057
C          6.78729       -2.57249        2.96684
C          7.78761       -3.41516        3.77719
C          9.09886       -2.66726        4.05650
N         10.13052       -3.46794        4.70811
C         10.14081       -3.71462        6.06888
N          9.40871       -3.18837        6.99423
N         11.10720       -4.67075        6.43276
C          6.85631       -4.67629        0.67782
C          6.41574       -5.64252       -0.43150
C          6.95207       -7.06797       -0.25422
C          6.38165       -7.80056        0.96081
N          6.88505       -9.16855        1.01534
C          6.48001      -10.05847        1.99166
N          5.74491       -9.82959        3.02766
N          6.95951      -11.36409        1.76677
H          0.73599        1.20463       -0.55505
H          0.46189       -0.35236        0.25641
H          0.83686       -0.31136       -1.47612
H          2.77374        0.55514        0.76810
H          3.14518        0.58752       -0.95339
H          2.86049       -1.90534       -1.07134
H          2.47952       -1.94399        0.65243
H          4.76969       -0.96729        1.13615
H          5.13759       -1.03151       -0.60257
H          4.67723       -3.49726       -0.58727
H          4.52883       -3.44247        1.18146
H          7.00698       -1.25234        1.25290
H          8.29136       -2.43012        1.36793
H          5.80418       -3.06941        2.99790
H          6.64232       -1.61249        3.49401
H          8.02603       -4.33753        3.22428
H          7.34185       -3.72892        4.73547
H          8.91080       -1.78021        4.68270
H          9.52167       -2.29389        3.11273
H         10.50262       -4.22303        4.13879
H          8.65942       -2.62008        6.59152
H         12.00421       -4.55016        5.96724
H         11.20784       -4.69444        7.44428
H          6.39161       -4.97772        1.63601
H          7.95014       -4.76720        0.79298
H          6.76815       -5.24955       -1.39680
H          5.31530       -5.67811       -0.49865
H          8.05199       -7.04218       -0.17592
H          6.71231       -7.65884       -1.15746
H          5.27446       -7.78506        0.91252
H          6.67144       -7.28452        1.88925
H          7.08258       -9.58508        0.10930
H          5.36545       -8.87962        3.00483
H          7.94067      -11.39398        1.49780
H          6.78277      -11.93929        2.58672
