32

C          1.20222       -0.30207       -0.39159
Ga         2.93734        0.35591        0.39226
C          3.99278       -1.31112        1.17828
C          4.13848       -2.64535        0.40546
C          4.85570       -2.57716       -0.98080
F          6.12229       -2.12390       -0.87789
F          4.91286       -3.82106       -1.53004
F          4.19088       -1.78631       -1.84658
F          4.82933       -3.59973        1.13109
F          2.89088       -3.16028        0.16382
F          5.30123       -0.96673        1.56253
F          3.36575       -1.70824        2.37210
C          4.09805        1.37866       -0.93784
C          5.56919        1.54352       -0.54544
C          6.30346        2.55890       -1.44635
C          7.81546        2.60102       -1.37573
C          8.46206        2.90553        0.01324
F          8.28948        1.88896        0.87771
F          9.79606        3.11872       -0.11070
F          7.91785        4.02340        0.55500
F          8.37289        1.41619       -1.80418
F          8.29653        3.58654       -2.22951
H          0.66552       -0.93548        0.32966
H          1.36400       -0.89233       -1.30523
H          0.54840        0.54621       -0.64568
H          2.77450        1.23275        1.72592
H          3.62160        2.37397       -1.01163
H          4.02760        0.92870       -1.94265
H          6.08587        0.57431       -0.60007
H          5.64615        1.86695        0.50477
H          5.93652        3.57800       -1.25079
H          6.08357        2.33934       -2.50384
