25

C          0.94646       -0.04263        0.10742
C          2.46806        0.12046        0.06479
C          3.14473       -1.18604       -0.40317
N          2.85731       -2.28340        0.44627
C          3.26612       -3.49469       -0.10122
C          4.87663       -3.72672       -0.19392
C          5.22565       -5.04920       -0.78064
O          5.68556       -6.01757       -0.15391
N          4.91690       -5.17862       -2.14245
C          2.88428        1.31095       -0.80472
H          0.70407       -0.94635        0.68336
H          0.54729       -0.17523       -0.91349
H          0.44708        0.83244        0.55580
H          2.81934        0.29627        1.09792
H          4.24576       -0.94811       -0.51374
H          2.81172       -1.37330       -1.47725
H          2.91292       -3.64398       -1.17963
H          2.87808       -4.35044        0.48334
H          5.28455       -3.65531        0.82121
H          5.27077       -2.90144       -0.80631
H          4.16223       -4.56933       -2.46712
H          4.81776       -6.15043       -2.43102
H          2.54896        1.16840       -1.84582
H          3.97985        1.42511       -0.82315
H          2.44855        2.25639       -0.44193
