25

O          2.18177       -0.90480        0.94444
C          2.10507        0.45478        0.70631
O          1.59937        1.16136        1.56118
C          2.71188        0.90695       -0.57288
P          4.71642        0.89695       -0.65884
C          4.85716       -0.86538       -1.59437
C          4.99568       -0.95547       -3.14282
C          6.24645       -0.31321       -3.85927
C          7.68893       -0.81493       -3.48096
F          7.76866       -2.16043       -3.48474
F          8.55696       -0.34874       -4.41823
F          8.08943       -0.35345       -2.29133
F          6.09506       -0.58441       -5.19585
F          6.24237        1.03305       -3.70967
F          4.97956       -2.27266       -3.54680
F          3.90357       -0.35680       -3.71218
F          5.93043       -1.57408       -1.07700
F          3.74671       -1.70633       -1.34316
F          4.76325        2.33802        0.22573
H          2.68811       -1.30835        0.21309
H          2.46174        1.95794       -0.74841
H          2.37183        0.29252       -1.41711
H          4.82139        0.10568        0.56175
H          6.16953        0.92259       -0.80700
H          4.54397        1.62499       -1.90900
