29

C          1.77167        0.10010       -0.81979
C          3.13178       -0.55864       -0.61704
P          3.36597       -1.35045        1.16663
C          2.61119       -3.06757        0.60184
C          3.23614       -3.91107       -0.32622
C          2.71507       -5.17122       -0.64727
C          1.53312       -5.63482       -0.04867
C          0.90364       -4.79810        0.88707
C          1.43842       -3.54323        1.20058
C          0.94372       -6.97649       -0.41811
C          4.08006        0.30380        1.88729
H          1.65867        0.57593       -1.81140
H          1.58745        0.87610       -0.05827
H          0.96108       -0.63875       -0.71312
H          3.94922        0.17090       -0.74787
H          3.28547       -1.35620       -1.36099
H          3.54720       -1.99460        2.51063
H          1.98842       -0.92451        1.57965
H          4.71674       -1.83340        0.73034
H          4.16782       -3.57701       -0.79825
H          3.23217       -5.80990       -1.37338
H         -0.01313       -5.14450        1.37843
H          0.94178       -2.90591        1.94305
H          1.72844       -7.72406       -0.61064
H          0.32728       -6.91554       -1.33180
H          0.29662       -7.36378        0.38308
H          3.91768        0.30676        2.97678
H          3.58282        1.18741        1.45455
H          5.16293        0.37403        1.68556
