70

O          1.48417       -5.63340        0.57754
C          1.32020       -4.32686        0.93118
O          1.52162       -4.01934        2.10959
C          0.89946       -3.33225       -0.05363
C          0.57273       -3.62529       -1.39260
C          0.15536       -2.60381       -2.23725
C          0.06641       -1.29402       -1.72876
C          0.38705       -1.01571       -0.40112
C          0.81598       -2.02598        0.49432
Nb         1.39875       -1.64982        2.60996
C          0.29356       -2.25611        4.45488
C         -0.15716       -3.56602        4.74215
C         -0.75849       -3.90298        5.95481
C         -0.95730       -2.94731        6.97795
C         -0.51206       -1.63821        6.70338
C          0.08272       -1.30783        5.48291
Si        -1.78612       -3.41144        8.58025
C         -0.82978       -4.84086        9.42069
C          0.64253       -4.50853        9.69895
C          1.39672       -5.67095       10.31877
C          2.93600       -5.47640       10.57174
C          3.44997       -4.32254       11.51551
C          3.06238       -4.27056       13.05071
C          3.42946       -5.50325       13.95931
C          3.37799       -5.20375       15.50666
F          2.20377       -4.64554       15.85580
F          3.51037       -6.37103       16.17046
F          4.37823       -4.39037       15.88709
F          2.56050       -6.51375       13.72339
F          4.69081       -5.92567       13.68381
F          3.72957       -3.18743       13.54998
F          1.73292       -4.03009       13.16226
F          4.80940       -4.34952       11.45276
F          3.03261       -3.13113       11.00292
F          3.45394       -6.64301       11.06034
F          3.52093       -5.23036        9.36615
F          0.83729       -6.04459       11.52479
F          1.33028       -6.77961        9.50521
C         -1.84637       -1.94509        9.78057
C         -3.55029       -4.05134        8.31262
C          2.26063        0.39887        2.63351
O          3.79708        0.43468        2.39479
C          4.21000       -0.30436        1.40629
F          3.88016        0.15638        0.14960
F          5.55939       -0.44191        1.42407
F          3.68620       -1.61641        1.43364
H          1.30280       -5.70932       -0.37593
H          0.63288       -4.64580       -1.79352
H         -0.10056       -2.81385       -3.27678
H         -0.25742       -0.48545       -2.38991
H          0.29910        0.01505       -0.04680
H          0.27090       -0.32258        2.95238
H          2.50874       -2.42763        3.80119
H         -0.31361       -1.95198        2.36440
H         -0.02704       -4.35010        3.99171
H         -1.08614       -4.93915        6.10425
H         -0.64140       -0.85011        7.45303
H          0.38482       -0.26815        5.32394
H         -0.89179       -5.71689        8.75625
H         -1.34279       -5.11671       10.35609
H          0.72706       -3.65189       10.38261
H          1.15866       -4.22938        8.76763
H         -0.84425       -1.54814        9.99721
H         -2.30702       -2.24164       10.73473
H         -2.44179       -1.12067        9.36306
H         -3.55421       -4.89783        7.61087
H         -4.18235       -3.26304        7.87937
H         -4.01373       -4.38563        9.25323
H          2.21446        0.79695        3.65762
H          1.86827        1.17342        1.95818
