70

C          7.56135       -5.08217        0.64967
O          7.67320       -3.71989        0.29466
C          7.07805       -2.86324        1.26800
C          7.31693       -1.41799        0.85413
O          6.63221       -0.59716        1.77533
C          6.86725        0.79930        1.53214
C          6.22816        1.63196        2.62251
Sb         7.28322        1.72020        4.61624
C          9.17990        2.62317        3.39210
F          8.82160        3.44579        2.32195
F         10.04803        3.40370        4.13636
F          9.99972        1.65581        2.81568
C          8.50221        1.99331        6.49843
C          9.22026        0.93212        7.05662
C          9.95331        1.09649        8.23861
C         10.00074        2.34288        8.89695
C          9.29206        3.41439        8.31031
C          8.55651        3.23711        7.13587
Si        10.91093        2.60236       10.51435
C         12.48236        3.67255       10.28137
C         13.65845        2.92753        9.63993
C         14.90164        3.74723        9.33085
C         15.65478        4.49639       10.49469
C         16.08241        3.71247       11.79325
C         17.12109        2.52066       11.73326
C         18.56270        2.80809       11.16657
C         19.63809        1.73320       11.58599
F         19.19360        0.48450       11.35148
F         20.75326        1.93589       10.85618
F         19.96171        1.84527       12.88642
F         18.51680        2.82584        9.81524
F         19.01245        4.00951       11.61382
F         17.26609        2.11173       13.02938
F         16.57558        1.49896       11.02898
F         16.58366        4.63497       12.65961
F         14.96129        3.17906       12.35902
F         16.78534        5.06555        9.98271
F         14.85371        5.50524       10.94286
F         15.84456        2.93706        8.72922
F         14.60831        4.74155        8.42877
C          9.82320        3.54784       11.74142
C         11.41812        0.94837       11.28505
H          8.03303       -5.66931       -0.14971
H          6.50319       -5.39530        0.74819
H          8.07510       -5.29901        1.60626
H          7.51978       -3.04284        2.26639
H          5.98987       -3.05733        1.33964
H          6.94793       -1.26015       -0.18184
H          8.40346       -1.20088        0.85559
H          6.45000        1.05225        0.53077
H          7.95757        0.97930        1.47732
H          5.19899        1.29477        2.81872
H          6.20029        2.68479        2.30821
H          8.05680        0.11981        4.43476
H          5.88298        1.07291        5.51603
H          6.76145        3.42853        4.81979
H          9.20787       -0.04349        6.55480
H         10.48964        0.23833        8.65667
H          9.30912        4.40364        8.78137
H          8.01323        4.08347        6.69844
H         12.76264        4.06442       11.27036
H         12.20756        4.54118        9.66297
H         13.36529        2.51667        8.65984
H         13.97426        2.07366       10.25590
H          9.52099        4.52377       11.33573
H         10.35282        3.72557       12.68909
H          8.90550        2.98412       11.96043
H         12.07935        0.36704       10.62687
H         10.53183        0.33005       11.48588
H         11.94446        1.10359       12.23855
