32

I          0.72028        0.87162        0.20057
In         3.45418        1.01039        0.49730
S          4.24080        0.67311       -2.07023
O          4.04197       -0.67231       -2.63551
O          3.81730        1.83256       -2.87227
C          6.22216        0.89830       -2.00961
C          7.14548       -0.24425       -2.54411
C          6.96073       -0.65114       -4.06717
C          8.30511       -0.92299       -4.83773
F          9.05391       -1.84448       -4.19639
F          8.01267       -1.40687       -6.06706
F          9.03326        0.19688       -5.00205
F          6.24325       -1.79377       -4.15387
F          6.31210        0.33205       -4.74438
F          8.45037        0.18081       -2.38088
F          6.98826       -1.34861       -1.78112
F          6.56653        2.05206       -2.63709
F          6.53017        1.04204       -0.67837
C          4.17305       -0.95124        1.45053
C          4.79513       -0.88023        2.87376
C          3.78285       -0.53609        4.01898
C          4.42715       -0.12323        5.39248
F          5.31429       -1.04570        5.81581
F          5.04630        1.06807        5.31507
F          3.44875       -0.02458        6.32241
F          2.99294        0.50794        3.63185
F          2.99078       -1.61110        4.26510
F          5.39690       -2.06443        3.21427
F          5.77162        0.08333        2.86282
F          3.17605       -1.90908        1.50126
F          5.18266       -1.48121        0.66147
H          4.06551        2.55133        1.01060
