35

O          3.48503       -3.73006        0.08506
C          2.68760       -2.63589       -0.04234
O          1.61813       -2.72987       -0.62227
C          3.21135       -1.36062        0.54140
In         4.72105       -0.44376       -0.76070
S          5.45365        1.72729        0.63445
O          5.18103        1.58362        2.07385
O          6.69874        2.37881        0.20762
C          4.05911        2.98858       -0.03125
C          3.08941        3.57619        1.02092
F          2.38580        2.60180        1.62826
F          3.76582        4.28011        1.94753
F          2.19358        4.42163        0.43357
F          4.64808        4.01312       -0.69030
F          3.30899        2.26827       -0.93616
S          6.72712       -2.16158       -0.05232
O          8.01581       -1.58154        0.34863
O          6.04268       -3.04364        0.93965
C          7.31469       -3.57575       -1.39591
C          7.04300       -3.33326       -2.90804
C          7.93844       -2.24603       -3.59376
C          7.50113       -1.83411       -5.04842
F          7.41018       -2.91222       -5.85417
F          6.32270       -1.19203       -5.04982
F          8.43743       -1.00486       -5.56044
F          7.93480       -1.11864       -2.83739
F          9.21246       -2.71325       -3.68587
F          7.22385       -4.50236       -3.59742
F          5.73056       -2.97293       -3.04023
F          8.64230       -3.77581       -1.19561
F          6.65571       -4.71631       -1.06851
H          4.35817       -3.49127        0.49499
H          3.73080       -1.50171        1.49694
H          2.40145       -0.63089        0.64108
H          4.90060       -0.08639       -2.43992
