58

C          0.86681       -0.21323       -0.15012
S          2.65217        0.00352        0.08386
C          3.26315       -0.93192       -1.36217
C          4.77168       -0.73417       -1.49875
C          5.39121       -1.52063       -2.68296
C          5.03435       -3.00139       -2.53154
C          4.03304       -3.62849       -3.29084
C          3.67722       -4.95762       -3.05620
C          4.30652       -5.72103       -2.06138
C          5.30864       -5.09891       -1.30603
C          5.66394       -3.76853       -1.53820
C          3.91589       -7.15845       -1.81517
C          6.89108       -1.34239       -2.76271
C          7.58575       -0.31570       -2.09687
C          8.96272       -0.15337       -2.25674
C          9.71734       -0.99860       -3.09302
C          9.01438       -2.02113       -3.76438
C          7.64420       -2.19193       -3.60139
Si        11.55092       -0.71574       -3.31370
C         11.85274        1.11308       -3.76360
C         11.01121        1.60300       -4.94798
C         11.27690        3.04300       -5.32850
F         11.02440        3.91329       -4.30871
F         12.57938        3.25382       -5.70017
F         10.50913        3.44259       -6.38267
C         12.51092       -1.04761       -1.71652
C         12.25039       -1.80127       -4.69645
C          4.83975       -0.89211       -4.11843
O          4.28651        0.22349       -4.01886
O          5.06859       -1.61019       -5.11608
H          0.36479        0.31080        0.67375
H          0.58334       -1.27509       -0.11863
H          0.53825        0.22392       -1.10338
H          2.77161       -0.54583       -2.26579
H          3.00360       -1.99150       -1.22404
H          5.26884       -1.02386       -0.55548
H          4.94972        0.33503       -1.67518
H          3.55523       -3.06678       -4.09219
H          2.89556       -5.41515       -3.66987
H          5.82437       -5.66595       -0.52574
H          6.45685       -3.31622       -0.93822
H          3.99836       -7.76305       -2.73170
H          2.87309       -7.24059       -1.46935
H          4.55669       -7.61991       -1.05108
H          7.04657        0.37633       -1.45061
H          9.45351        0.66190       -1.71497
H          9.54511       -2.69837       -4.43881
H          7.12011       -2.97211       -4.15270
H         12.92663        1.24675       -3.97247
H         11.63083        1.72464       -2.87456
H          9.93617        1.52012       -4.72910
H         11.19742        1.00661       -5.85399
H         12.11181       -0.43686       -0.89423
H         13.57979       -0.81301       -1.83046
H         12.41879       -2.10265       -1.42292
H         11.73453       -1.62435       -5.65070
H         12.14385       -2.86823       -4.45523
H         13.32032       -1.59425       -4.84356
