26

C          0.98672        2.66914       -0.58807
C          2.48250        2.50063       -0.89705
C          3.13656        1.27015       -0.26216
Ga         5.10196        1.12278       -0.77643
C          6.18175       -0.33398        0.19299
C          6.78261        0.09872        1.53548
C          7.91850        1.11778        1.38903
C          5.31476       -1.58904        0.34839
F          5.81858        2.80548       -0.31863
H          0.56225        3.57732       -1.05117
H          0.81639        2.73580        0.49867
H          0.40943        1.80444       -0.95447
H          3.02460        3.40409       -0.57096
H          2.61638        2.46143       -1.99306
H          2.61374        0.35357       -0.59490
H          3.02532        1.31140        0.83669
H          5.26110        0.99600       -2.38480
H          7.02144       -0.58574       -0.48290
H          7.16079       -0.79023        2.08965
H          5.99264        0.53044        2.17772
H          8.74756        0.68780        0.80259
H          8.32429        1.42185        2.36767
H          7.55598        2.01165        0.86080
H          4.43361       -1.39605        0.98347
H          5.86719       -2.43209        0.81475
H          4.93359       -1.94690       -0.62218
