43

C          0.34907        3.91844       -0.98384
O          1.74303        3.97132       -1.20469
C          2.47036        3.32116       -0.16638
C          3.96125        3.44394       -0.45231
O          4.62583        2.77067        0.59735
C          6.05934        2.72075        0.46451
C          6.74748        4.04315        0.80394
C          8.28717        3.96070        0.88328
C          8.77765        2.99477        2.07042
O          9.98385        2.63987        1.99169
O          7.92988        2.74771        2.96553
C          8.91772        3.43580       -0.42769
C          8.71337        4.29200       -1.68396
C          9.41181        3.79738       -2.94215
O          9.07219        4.07801       -4.07281
O         10.51204        3.01053       -2.74487
C          8.87582        5.36359        1.19603
C          8.63440        5.84145        2.62981
S          9.27373        7.54481        2.82255
C          8.95917        7.78302        4.59277
H         -0.13597        4.43240       -1.82438
H          0.06468        4.42426       -0.04032
H         -0.01972        2.87473       -0.93968
H          2.18838        2.25170       -0.10648
H          2.24281        3.78304        0.81404
H          4.23784        4.51388       -0.50947
H          4.19691        2.98529       -1.43490
H          6.30420        2.37878       -0.56039
H          6.38962        1.96253        1.18629
H          6.37198        4.34328        1.79215
H          6.45536        4.82421        0.07728
H          8.54776        2.41550       -0.61933
H          9.98884        3.32505       -0.17007
H          9.09147        5.31556       -1.51929
H          7.65118        4.40351       -1.94560
H         10.60023        2.85660       -1.78164
H          8.45921        6.11275        0.49763
H          9.96423        5.32279        1.02757
H          9.14982        5.18374        3.34267
H          7.56382        5.84391        2.87921
H          9.31238        8.78901        4.85441
H          9.50700        7.04400        5.19338
H          7.88606        7.71246        4.81958
