16

C          1.00778        0.12212        0.11809
C          2.53523        0.16714       -0.01334
C          3.02467        0.66332       -1.39049
C          4.51653        0.66783       -1.55559
C          5.15986        1.74448       -2.15361
F          4.97952        1.97307       -3.74611
F          4.76073        3.02072       -1.76888
F          6.54191        1.71919       -2.13137
H          0.68139       -0.26048        1.09844
H          0.56249       -0.52275       -0.65723
H          0.57063        1.12596       -0.00926
H          2.95311       -0.83848        0.17110
H          2.97102        0.81726        0.76325
H          2.64292        1.68839       -1.54053
H          2.50222        0.04506       -2.16072
H          5.01719       -0.29093       -1.71404
