38

N          1.73736        0.54689        0.23316
C          2.92662       -0.04226       -0.35873
As         3.23970       -2.01162        0.28194
C          2.51952       -2.94492       -1.55028
C          1.55698       -2.39749       -2.40225
C          0.98902       -3.14666       -3.44963
C          1.38166       -4.46580       -3.67231
C          2.34663       -5.02644       -2.82551
C          2.89554       -4.27375       -1.78076
C          2.79216       -6.43666       -3.08328
F          1.74013       -7.28523       -3.31966
F          3.59921       -6.53742       -4.19147
F          3.49616       -6.97376       -2.05209
C         -0.07028       -2.51977       -4.30909
F         -1.23998       -2.30825       -3.62539
F          0.30415       -1.29594       -4.79094
F         -0.40097       -3.27630       -5.39839
C          5.25342       -2.00644       -0.37871
C          5.99084       -3.15773        0.25106
S          7.81696       -3.00026        0.06165
C          8.38034       -4.44965        1.00537
H          1.88932        0.63132        1.24315
H          0.97001       -0.13573        0.16095
H          3.82118        0.50366       -0.02937
H          2.87048       -0.01284       -1.45669
H          1.68031       -1.99820        0.77142
H          3.40643       -3.51808        0.79274
H          3.73222       -1.45126        1.73579
H          1.21793       -1.36706       -2.26079
H          0.94303       -5.04723       -4.48133
H          3.61475       -4.74507       -1.10366
H          5.64057       -1.03905       -0.02578
H          5.27314       -2.03485       -1.47719
H          5.69346       -4.11947       -0.19416
H          5.77372       -3.20688        1.33292
H          9.47709       -4.46900        0.95471
H          7.99119       -5.38355        0.57467
H          8.07550       -4.38208        2.05975
