22

C          0.89239       -0.15356        0.01054
B          2.51668        0.11241       -0.07132
C          3.36721       -0.92510        0.88727
C          4.88627       -0.73487        0.82666
C          5.71266       -1.64864        1.74485
C          7.21686       -1.40048        1.66883
N          7.96701       -2.30511        2.57059
H          0.31367        0.54936       -0.61774
H          0.49311       -0.04788        1.04010
H          0.60986       -1.17214       -0.32503
H          2.90897       -0.01631       -1.25355
H          2.77496        1.28596        0.28283
H          3.13736       -1.97901        0.61808
H          3.04556       -0.81912        1.94644
H          5.11956        0.31972        1.06711
H          5.22140       -0.87707       -0.21789
H          5.51099       -2.70758        1.50724
H          5.37925       -1.50210        2.79101
H          7.41005       -0.32812        1.87560
H          7.56876       -1.58979        0.64056
H          7.59632       -2.20300        3.51858
H          8.94657       -2.01727        2.62166
