36

C          0.53933       -1.53824        0.97105
C          2.06223       -1.66868        0.87437
C          2.81891       -0.75991        1.84967
C          4.34965       -0.89626        1.79290
C          5.12807        0.00513        2.75918
Al         7.14096       -0.31106        2.81535
C          8.02753        0.20578        1.05495
C          7.99732        1.70428        0.73750
C          8.72692        2.05469       -0.57844
C          8.72039        3.52396       -0.93839
C          9.46836        3.88293       -2.25945
F         10.77494        3.52879       -2.18807
F          8.92231        3.23617       -3.31851
F          9.41847        5.21102       -2.52141
F          7.43495        4.00387       -1.09839
F          9.31164        4.29423        0.04197
O          7.93173        0.71787        4.05832
H          0.02016       -2.19879        0.25955
H          0.21714       -0.50581        0.76421
H          0.18537       -1.79290        1.98221
H          2.38655       -1.44244       -0.15629
H          2.35448       -2.71721        1.05757
H          2.48193       -0.97240        2.88109
H          2.54329        0.29312        1.65603
H          4.67577       -0.69997        0.75363
H          4.61026       -1.95490        1.98292
H          4.74260       -0.15415        3.78631
H          4.90823        1.06624        2.52931
H          7.38941       -1.92350        3.11850
H          7.55986       -0.35908        0.22484
H          9.07907       -0.13771        1.09438
H          8.45860        2.27013        1.56200
H          6.95603        2.05864        0.66573
H          8.27005        1.50663       -1.41753
H          9.77793        1.73168       -0.51701
H          7.82135        0.42432        4.97061
