22

F          3.74606       -1.53930       -1.50456
Ta         3.91952       -0.02748       -0.33211
C          3.30126        2.16414       -0.39678
F          2.17659        2.34258       -1.22267
F          2.88438        2.65387        0.85599
F          4.16711        3.15022       -0.83777
C          4.78995       -1.09692        1.36353
C          6.21993       -1.63476        1.37512
C          6.61345       -2.40324        2.64884
C          8.04850       -2.93956        2.61990
H          2.24539        0.17398        0.29743
H          4.65985        0.73557       -1.74918
H          5.36781        0.90028        0.13632
H          4.07010       -1.93562        1.50753
H          4.63221       -0.40253        2.21378
H          6.91868       -0.79330        1.22960
H          6.37187       -2.30410        0.50817
H          5.90874       -3.23983        2.79804
H          6.48273       -1.73891        3.52068
H          8.19523       -3.63347        1.77714
H          8.30705       -3.47885        3.54444
H          8.77383       -2.12029        2.49674
