42

O          4.14024        0.52419        2.03587
Ta         3.31394       -0.01696        0.41089
C          2.35107       -1.96515        1.24039
C          3.17098       -3.16350        1.78805
F          3.60324       -3.97106        0.79490
F          4.26531       -2.72631        2.47595
F          2.46709       -3.95736        2.65534
F          1.77555       -1.42147        2.43577
F          1.30146       -2.56664        0.55712
C          4.42603       -1.45898       -0.81177
C          5.70843       -2.00293       -0.56450
C          6.34077       -2.85929       -1.46293
C          5.71220       -3.21177       -2.66975
C          4.42509       -2.71007       -2.93246
C          3.80569       -1.86504       -2.01801
C          6.42073       -4.06622       -3.66925
C          6.27982       -5.63456       -3.55173
C          4.87591       -6.32825       -3.73210
C          4.08825       -6.27450       -5.10984
C          4.80839       -6.77528       -6.41671
C          3.83643       -7.02944       -7.63312
F          3.04503       -5.96566       -7.86171
F          4.58489       -7.24737       -8.73679
F          3.06410       -8.11256       -7.43445
F          5.70929       -5.85132       -6.82407
F          5.44963       -7.95031       -6.17863
F          2.99522       -7.07636       -4.92480
F          3.64534       -5.01367       -5.32695
F          5.07143       -7.65407       -3.45889
F          4.01853       -5.83309       -2.80763
F          7.12203       -6.23328       -4.45355
F          6.69882       -5.99221       -2.30419
F          6.04979       -3.75361       -4.96521
F          7.79125       -3.87576       -3.59795
H          3.71358        0.45160        2.90342
H          1.54884       -0.02633        0.25779
H          2.62051        1.44657       -0.32270
H          4.32125        0.71698       -0.86507
H          6.24005       -1.74618        0.35609
H          7.33706       -3.24470       -1.23915
H          3.91738       -2.96658       -3.86246
H          2.80695       -1.49000       -2.27128
