51

C          5.22381       -0.70533       -2.07046
C          3.93639       -0.47909       -1.27059
C          3.99357       -0.98155        0.18107
C          5.02475       -0.27526        1.08288
B          4.86783        1.33756        1.32988
S          3.49550        1.51708        2.70504
O          2.21399        0.88384        2.34727
O          3.99316        1.28598        4.07198
C          2.96332        3.41366        2.86812
C          2.43751        4.24331        1.64942
C          1.20325        3.68180        0.85511
C          0.50231        4.73405       -0.08695
F          1.38625        5.34462       -0.90186
F         -0.40193        4.08734       -0.85945
F         -0.15983        5.67746        0.61157
F          1.59868        2.66085        0.06109
F          0.24318        3.24662        1.71192
F          2.07109        5.48969        2.12018
F          3.45427        4.43291        0.76721
F          1.99264        3.43334        3.82716
F          4.02658        4.13437        3.35066
C          6.23367        2.06393        1.84429
C          7.21185        2.31281        0.68681
C          8.52126        2.98116        1.11858
C          9.47604        3.25298       -0.04221
N         10.69657        3.89454        0.43367
C         11.73074        4.23244       -0.41640
N         11.76055        4.16515       -1.70580
N         12.86668        4.69923        0.27241
H          5.11076       -0.38156       -3.11630
H          5.50467       -1.77138       -2.07918
H          6.06788       -0.14568       -1.64286
H          3.10135       -0.98355       -1.78662
H          3.69516        0.59500       -1.26811
H          4.19787       -2.07004        0.16023
H          2.99465       -0.86272        0.62778
H          6.03624       -0.42138        0.65844
H          5.06356       -0.80624        2.05079
H          4.35252        1.93553        0.39628
H          6.73075        1.44428        2.61375
H          6.03260        3.03328        2.32965
H          6.71843        2.94589       -0.07181
H          7.44760        1.36141        0.17683
H          9.02848        2.33826        1.86133
H          8.29733        3.93241        1.63013
H          8.99196        3.92061       -0.77430
H          9.70369        2.30589       -0.56973
H         10.97658        3.63228        1.37478
H         10.92737        3.69319       -2.06617
H         12.64875        5.35891        1.01635
H         13.53301        5.09121       -0.38835
