38

C          0.96534       -0.09840        0.66021
C          2.41944        0.03258        0.19644
C          3.16804        1.20097        0.84871
C          4.62674        1.34110        0.40226
C          5.36989        2.51561        1.04513
C          6.85705        2.63301        0.61973
C          7.63131        3.74916        1.25774
C          8.23075        3.60117        2.51477
C          8.93180        4.68000        3.18769
C          9.56850        4.51172        4.40954
C          9.57141        3.28867        5.11182
C          8.86012        2.23221        4.49949
C          8.21047        2.36864        3.28239
C         10.29847        3.11491        6.41865
C          7.67045        5.06690        0.53521
H          0.45156       -0.93873        0.16981
H          0.39341        0.81569        0.43730
H          0.90710       -0.26134        1.74745
H          2.44561        0.15321       -0.90056
H          2.95931       -0.90667        0.40709
H          3.13635        1.08397        1.94662
H          2.62850        2.14120        0.63323
H          4.66261        1.44292       -0.69896
H          5.16775        0.40414        0.63159
H          5.32983        2.42478        2.14387
H          4.85507        3.46100        0.79969
H          6.87658        2.74681       -0.48436
H          7.33356        1.65080        0.81992
H          8.95494        5.66806        2.72382
H         10.08048        5.37469        4.85410
H          8.80435        1.26372        5.01256
H          7.66184        1.50645        2.89565
H         10.51874        4.09094        6.88127
H         11.27084        2.58896        6.31806
H          9.71028        2.53509        7.15277
H          7.36380        4.94133       -0.51793
H          8.68205        5.52190        0.52091
H          7.00357        5.85822        0.95353
