36

C          1.08746       -0.00230       -0.17140
Al         2.78944       -0.99330        0.09631
S          3.89968       -0.00547        2.06999
O          3.21908       -0.39210        3.31872
O          5.37169       -0.10664        2.02208
C          3.56441        1.94276        1.95681
C          4.53533        2.84899        2.76300
C          4.11407        4.35711        2.90434
F          3.86557        4.90918        1.69815
F          3.01783        4.50090        3.67434
F          5.11954        5.05816        3.48374
F          4.65851        2.36215        4.02950
F          5.75614        2.84549        2.16479
F          3.65347        2.28325        0.62936
F          2.28477        2.19034        2.36182
C          4.09923       -0.87188       -1.43580
C          5.03083        0.16434       -1.65852
C          5.85434        0.18436       -2.78889
C          5.77661       -0.83161       -3.74935
C          4.87024       -1.86995       -3.54828
C          4.05428       -1.88931       -2.40440
C          4.75282       -2.98633       -4.54784
F          5.56027       -2.82133       -5.63477
F          5.07335       -4.20175       -4.00918
F          3.47814       -3.11511       -5.02932
C          6.84500        1.29347       -3.01852
F          6.83670        2.23388       -2.04473
F          8.13073        0.82593       -3.10635
F          6.61154        1.95029       -4.20194
H          0.47291        0.00104        0.74122
H          0.49557       -0.49441       -0.96080
H          1.23771        1.04237       -0.47900
H          2.69680       -2.51501        0.62555
H          5.12856        0.97236       -0.93297
H          6.41266       -0.81264       -4.63355
H          3.36932       -2.73301       -2.27371
