54

C          8.97223        3.70308        4.86058
C          8.54269        2.80554        3.69786
C          9.00364        3.32414        2.33246
C          8.58187        2.43869        1.15627
C          9.04769        2.96763       -0.20317
C          8.62873        2.09883       -1.39333
C          9.10526        2.65589       -2.74049
C          8.68380        1.82737       -3.96444
Si         9.27474        2.53204       -5.63642
C          8.70550        1.49190       -7.09093
C          7.92956        2.04350       -8.13012
C          7.62590        1.30827       -9.28099
C          8.06826       -0.01484       -9.46857
C          8.80229       -0.57457       -8.40253
C          9.11905        0.15330       -7.24908
In         7.70216       -1.02414      -11.43926
C          8.59624       -3.06702      -11.64169
C          9.85897       -3.38209      -10.82858
Br         5.07878       -1.55995      -11.43000
C          8.62335        4.30405       -5.81328
C         11.17252        2.59110       -5.61177
H          8.62984        3.30863        5.82783
H          8.56210        4.71839        4.75029
H         10.06795        3.79517        4.90674
H          7.44410        2.70487        3.69507
H          8.93897        1.78742        3.85117
H         10.10364        3.42594        2.33597
H          8.60806        4.34430        2.18019
H          7.48214        2.33812        1.15136
H          8.97787        1.41881        1.30673
H         10.14793        3.06698       -0.19572
H          8.65530        3.99032       -0.34687
H          7.52905        2.00068       -1.40878
H          9.02274        1.07577       -1.26111
H         10.20545        2.74626       -2.71222
H          8.72530        3.68748       -2.84378
H          7.58439        1.73784       -4.00019
H          9.06264        0.79459       -3.86991
H          7.56812        3.07356       -8.05107
H          7.03169        1.79191      -10.06287
H          9.15785       -1.60696       -8.47008
H          9.71562       -0.33087       -6.46642
H          7.92647        0.13340      -12.76134
H          8.79333       -3.21222      -12.71586
H          7.78743       -3.76571      -11.37924
H         10.66177       -2.64640      -10.99742
H         10.28622       -4.37599      -11.06437
H          9.65662       -3.37957       -9.74638
H          7.52435        4.33345       -5.79404
H          8.95182        4.74522       -6.76506
H          8.99361        4.94676       -5.00171
H         11.59382        1.58123       -5.50047
H         11.56023        3.21439       -4.79255
H         11.54984        3.00013       -6.55986
