18

N          3.24478       -1.27897       -0.01045
N          2.64775        0.01227        0.19960
C          3.22172        1.02819       -0.45440
C          4.36712        0.90948       -1.31900
C          4.91681        2.01992       -1.94272
C          4.38639        3.31034       -1.75362
C          3.27397        3.45201       -0.91968
C          2.67830        2.36766       -0.26985
C          1.50723        2.63363        0.61412
O          1.02496        3.75771        0.78619
O          0.99112        1.55955        1.24134
H          2.73031       -1.90147        0.61587
H          4.20770       -1.26182        0.36737
H          4.77406       -0.08342       -1.51262
H          5.77993        1.88212       -2.60265
H          4.83081        4.17695       -2.24601
H          2.82367        4.43112       -0.73967
H          1.57166        0.72007        0.94810
