16

O          1.65363       -0.99297        0.44401
C          2.30449        0.03186        0.10057
O          2.44329        1.12769        0.71608
C          3.06557       -0.06649       -1.28185
C          2.73314        1.12869       -2.18388
C          1.24638        1.22456       -2.54008
C          4.57525       -0.15527       -1.02975
H          2.72513       -0.99732       -1.76919
H          3.33707        1.07708       -3.11165
H          3.03608        2.04263       -1.64574
H          0.90286        0.32191       -3.07081
H          1.03529        2.09483       -3.18230
H          0.64284        1.31944       -1.62617
H          4.91140        0.73414       -0.47427
H          5.15125       -0.21577       -1.97129
H          4.81973       -1.04091       -0.42367
