70

C          7.86396        4.83969       15.03126
C          8.76284        4.48288       13.84516
C          8.08244        4.67192       12.48531
C          8.98840        4.33950       11.29614
C          8.32852        4.54763        9.92888
C          9.26245        4.24510        8.75290
C          8.62913        4.45880        7.37175
C          9.59264        4.16068        6.21263
Si         8.91568        4.37220        4.44600
C          8.42951        6.16162        4.10577
C          9.17020        7.23873        4.64180
C          8.85927        8.56494        4.33362
C          7.78694        8.89344        3.48027
C          7.05053        7.81443        2.94695
C          7.35957        6.48193        3.24847
Ta         6.87555       10.79694        2.95142
S          7.78813       12.08826        1.03441
O          8.72804       13.21916        1.09173
O          8.19969       10.88083        0.26209
C          6.42034       12.86115       -0.11046
F          5.58521       13.65325        0.62335
F          6.97291       13.64097       -1.07327
F          5.65268       11.93806       -0.73784
C          5.56245       11.00670        4.68577
C          4.69517        9.76568        4.97600
C          3.54489       10.02571        5.96285
C          2.73552        8.77497        6.29898
N          1.64186        9.08724        7.23888
C         10.29119        3.83731        3.25701
C          7.42866        3.22382        4.20133
H          8.38343        4.70141       15.99021
H          6.95982        4.21247       15.04840
H          7.53514        5.88841       14.97834
H          9.10154        3.43700       13.93932
H          9.67677        5.10003       13.87839
H          7.73304        5.71568       12.39668
H          7.17397        4.04502       12.44229
H          9.33077        3.29257       11.38034
H          9.90042        4.95978       11.35399
H          7.97103        5.58916        9.85128
H          7.42802        3.91225        9.85623
H          9.61973        3.20221        8.82925
H         10.16375        4.87828        8.83464
H          8.26771        5.49789        7.29432
H          7.73213        3.82093        7.28695
H          9.95883        3.12062        6.29263
H         10.49298        4.79299        6.31039
H         10.01613        7.03706        5.30752
H          9.47275        9.36632        4.75479
H          6.21037        8.00631        2.26453
H          6.75511        5.68467        2.80516
H          5.66908       10.72192        1.62574
H          8.60142       11.15262        2.85752
H          7.25704       12.37298        3.62214
H          4.91733       11.85537        4.37106
H          6.06768       11.34970        5.60382
H          5.33254        8.95799        5.37397
H          4.25803        9.36520        4.04181
H          2.86838       10.79567        5.55755
H          3.96561       10.44479        6.89569
H          3.42660        7.99292        6.67438
H          2.27893        8.37505        5.37852
H          2.03594        9.47355        8.09949
H          1.15347        8.23234        7.51018
H         11.17792        4.47681        3.37231
H          9.95973        3.91972        2.21229
H         10.59616        2.79549        3.43813
H          6.59285        3.49340        4.86202
H          7.70903        2.18161        4.41551
H          7.05976        3.25996        3.16649
