37

C          3.13993        0.59202       -2.15947
C          2.20556       -0.39083       -1.42789
C          2.96110       -1.23497       -0.39153
Nb         2.28272       -3.21362        0.45363
C          0.95816       -3.47247        2.20824
C         -0.49551       -3.93147        2.14160
C         -1.25431       -3.70300        3.46768
C         -2.67862       -4.21329        3.47970
C         -3.47273       -3.90103        4.78557
F         -2.85126       -4.43032        5.86836
F         -3.57548       -2.56430        4.97932
F         -4.72684       -4.40794        4.74422
F         -3.42613       -3.67850        2.45268
F         -2.72498       -5.58594        3.33073
C          2.85445       -5.21318       -0.26622
C          1.04193        0.37817       -0.79078
H          3.95538        0.05538       -2.66862
H          3.60298        1.29164       -1.44268
H          2.60252        1.19231       -2.91519
H          1.78119       -1.08009       -2.17888
H          3.25878       -0.58252        0.45464
H          3.92281       -1.58977       -0.82551
H          0.76118       -2.38336        0.05730
H          3.78832       -2.67526        1.36735
H          1.87590       -3.18347       -1.27048
H          1.01627       -2.43340        2.59797
H          1.52796       -4.10304        2.92642
H         -0.54322       -5.00201        1.88413
H         -1.01324       -3.39025        1.33591
H         -1.28233       -2.62553        3.69209
H         -0.72418       -4.19275        4.29905
H          3.27440       -5.75799        0.60541
H          3.60610       -5.21703       -1.07085
H          1.97595       -5.77480       -0.62965
H          1.41858        1.08466       -0.03001
H          0.35606       -0.32251       -0.29468
H          0.47739        0.96063       -1.53779
