43

C          1.86273       -1.32510        0.29707
C          2.84171       -0.21006       -0.08625
C          3.63711       -0.50673       -1.36802
C          4.61219        0.58236       -1.78823
As         5.71304        0.12771       -3.52145
C          4.30056        0.96189       -4.83386
C          3.39304       -0.05913       -5.52262
C          3.85208       -0.55215       -6.88897
O          3.07276       -0.70922       -7.84088
N          5.17760       -0.84281       -6.97852
C          7.28132       -0.78917       -2.49616
C          7.32931       -2.27512       -2.79334
C          8.64254       -2.98110       -2.42403
C          8.63203       -4.47115       -2.75822
N          9.91403       -5.11246       -2.39884
H          1.31501       -1.09583        1.22423
H          2.39002       -2.27999        0.44669
H          1.11907       -1.48612       -0.49869
H          3.54864       -0.03551        0.74309
H          2.29046        0.73727       -0.21591
H          2.92304       -0.70097       -2.18919
H          4.18199       -1.45950       -1.23287
H          5.35741        0.77936       -1.00008
H          4.08889        1.52957       -1.99800
H          4.95451       -1.31709       -3.68092
H          6.44213        1.56607       -3.42188
H          6.66426       -0.25578       -4.89467
H          4.90073        1.54400       -5.54799
H          3.70933        1.65970       -4.22361
H          2.36321        0.29969       -5.65899
H          3.33814       -0.96496       -4.87624
H          5.83873       -0.65989       -6.19911
H          5.52874       -1.15383       -7.87692
H          7.19078       -0.57963       -1.41830
H          8.16623       -0.26625       -2.89152
H          7.14191       -2.41566       -3.87695
H          6.49446       -2.78379       -2.27999
H          8.86135       -2.85635       -1.35041
H          9.47495       -2.49593       -2.96744
H          8.36666       -4.59423       -3.82735
H          7.83756       -4.96947       -2.17800
H         10.66953       -4.65866       -2.91772
H          9.91396       -6.08877       -2.70089
