24

N          1.65592        1.98320       -0.12734
C          3.10435        2.31242       -0.20158
C          3.79579        1.54335       -1.31872
Ta         5.92213        1.70291       -1.57175
C          6.46005        0.20716        0.06918
C          6.04854       -1.29250        0.08073
F          6.64003       -1.99942       -0.90921
F          6.37583       -1.92006        1.25141
F          4.69903       -1.43635       -0.06428
F          7.85082        0.16014        0.23383
F          5.94282        0.67167        1.30378
S          6.63546        3.91484       -2.42425
O          7.21649        4.47833       -3.63555
O          5.13512        3.93398       -2.31010
F          7.07078        5.05538       -1.27247
H          1.24435        2.45337        0.68365
H          1.55994        0.98107        0.05649
H          3.62443        2.12125        0.75614
H          3.18409        3.39082       -0.40608
H          3.35634        1.80188       -2.29973
H          3.67861        0.44866       -1.17646
H          6.86022        2.46409       -0.28563
H          6.39321        1.70327       -3.27789
H          6.36675        0.13736       -2.25256
