49

F          8.67791       -1.61584        5.98289
S          9.92901       -0.53571        5.68688
O          9.20144        0.66329        5.28942
O         10.64217       -0.51655        6.94673
N         10.79490       -1.25170        4.58859
C         10.36616       -1.42006        3.29281
C         11.32492       -1.94413        2.37905
C         11.01191       -2.18541        1.04942
C          9.72182       -1.92829        0.52400
C          8.77258       -1.41042        1.43286
C          9.07000       -1.15809        2.76865
Si         9.31872       -2.28271       -1.25647
C          9.63501       -4.13288       -1.64892
C          8.93359       -5.07386       -0.66255
C          8.93359       -6.55269       -1.00959
C         10.29457       -7.33503       -1.10409
C         11.30952       -7.29401        0.10029
C         10.92295       -7.86760        1.52509
C         10.50757       -9.38312        1.63390
C         10.56100       -9.96245        3.09947
F          9.89605       -9.17378        3.95971
F          9.97797      -11.18109        3.09480
F         11.82834      -10.10832        3.52371
F          9.23697       -9.53561        1.19110
F         11.33570      -10.15137        0.87663
F         12.03985       -7.69785        2.29032
F          9.92991       -7.10920        2.04533
F         12.42474       -7.96002       -0.31243
F         11.65512       -5.99568        0.31508
F         10.02359       -8.64936       -1.36084
F         10.99179       -6.84565       -2.17107
F          8.15598       -7.23993       -0.10020
F          8.34314       -6.75316       -2.24298
C          7.50076       -1.90659       -1.63691
C         10.40795       -1.30356       -2.46009
H         12.32385       -2.15407        2.76597
H         11.79760       -2.58643        0.39915
H          7.75782       -1.19141        1.08646
H          8.30384       -0.74801        3.42528
H         10.72219       -4.30147       -1.63530
H          9.29827       -4.33641       -2.67801
H          7.86015       -4.83292       -0.58989
H          9.34020       -4.95066        0.35104
H          6.81529       -2.49861       -1.01393
H          7.27248       -2.12399       -2.69084
H          7.27393       -0.84619       -1.45650
H         11.47379       -1.47811       -2.25367
H         10.22491       -0.22485       -2.35394
H         10.21421       -1.58333       -3.50673
