81

C          6.75533        8.87334        7.42957
C          6.37819        8.94714        5.94825
C          7.30973        8.13222        5.04598
C          6.94913        8.20238        3.55949
C          7.87995        7.38005        2.66359
C          7.53363        7.45513        1.17377
C          8.45872        6.61102        0.28826
C          8.12880        6.68938       -1.20971
Si         9.21571        5.62694       -2.35645
C          8.61172        5.81676       -4.12703
C          9.41872        6.33075       -5.15845
C          8.94000        6.45691       -6.46431
C          7.63232        6.07052       -6.80607
C          6.81959        5.55956       -5.78028
C          7.30114        5.43737       -4.47634
C          7.09058        6.23256       -8.23756
C          7.78727        5.25520       -9.22305
C          8.15799        3.73959       -8.89009
C          7.08993        2.59231       -8.71985
C          7.72453        1.14071       -8.81817
F          8.80144        0.98997       -8.01773
F          6.78987        0.24207       -8.42324
F          8.08300        0.81709      -10.07682
F          6.52378        2.64601       -7.49305
F          6.15522        2.62664       -9.69458
F          8.93884        3.32497       -9.95098
F          8.94863        3.71080       -7.77968
F          7.13854        5.21619      -10.42961
F          9.06532        5.76854       -9.51614
C          5.49704        5.98000       -8.21176
O          4.80751        6.98861       -7.94129
O          5.15401        4.79278       -8.41310
C          7.34862        7.70037       -8.69090
C          6.83941        8.09015      -10.08446
C          6.87809        9.60639      -10.28892
C          6.44741       10.01844      -11.69545
N          6.53301       11.46580      -11.85791
C          6.26053       12.08435      -13.06277
N          5.78668       11.55906      -14.14272
N          6.56531       13.45955      -13.04586
C         11.02032        6.18203       -2.20447
C          9.08062        3.81382       -1.82268
H          6.07213        9.46736        8.05309
H          7.77499        9.25142        7.59849
H          6.72459        7.83605        7.79584
H          6.38414        9.99969        5.61763
H          5.34205        8.59384        5.81223
H          7.30064        7.07739        5.37407
H          8.34817        8.48199        5.18617
H          6.96377        9.25649        3.23036
H          5.90973        7.85694        3.41906
H          7.85720        6.32468        2.98921
H          8.92084        7.71874        2.81244
H          7.57196        8.50683        0.83951
H          6.49032        7.12765        1.02092
H          8.40933        5.56172        0.62828
H          9.50154        6.93184        0.45914
H          8.19640        7.73496       -1.55720
H          7.07851        6.39329       -1.37783
H         10.44734        6.63669       -4.94828
H          9.60853        6.84448       -7.23384
H          5.80051        5.24958       -6.01384
H          6.62732        5.03138       -3.71521
H          8.41706        7.95310       -8.61193
H          6.80053        8.29778       -7.94836
H          5.80437        7.73604      -10.19770
H          7.44226        7.60561      -10.86745
H          7.90393        9.97930      -10.10694
H          6.22437       10.09655       -9.54902
H          5.40641        9.70252      -11.87306
H          7.07694        9.49768      -12.44345
H          7.25245       11.91435      -11.29728
H          5.72951       10.54074      -14.05969
H          6.24258       13.93641      -12.20649
H          6.20049       13.90131      -13.88622
H         11.14340        7.23725       -2.48779
H         11.67602        5.58183       -2.85149
H         11.37925        6.06779       -1.17123
H          8.04385        3.45692       -1.90500
H          9.40961        3.66463       -0.78381
H          9.69871        3.17568       -2.47014
