49

C          0.94175       -0.15744       -0.28354
C          2.38444        0.34415       -0.38905
C          2.90611        0.98733        0.90001
C          4.35358        1.48225        0.80932
C          4.90296        2.06551        2.12439
C          6.33387        2.59425        2.04267
Nb         7.23039        3.33095        3.98448
C          6.17113        4.14471        5.75500
C          6.54162        5.50245        6.36752
C          6.10925        6.73029        5.55368
C          4.66009        3.92637        5.65003
C          9.35782        3.15745        4.58322
C         10.18455        2.09040        3.84940
C         10.60959        2.45580        2.42018
C         10.12627        4.45958        4.80806
H          0.60111       -0.63106       -1.21680
H          0.25006        0.66832       -0.05569
H          0.84055       -0.89963        0.52355
H          2.46296        1.07156       -1.21529
H          3.04591       -0.49535       -0.66391
H          2.82254        0.25848        1.72658
H          2.24868        1.83136        1.17744
H          4.43072        2.24516        0.01334
H          5.00470        0.64719        0.49201
H          4.83788        1.29031        2.90930
H          4.22835        2.88205        2.44620
H          6.39652        3.36081        1.25674
H          7.02019        1.76754        1.76183
H          6.72625        1.56021        4.21468
H          8.08956        4.19754        2.68532
H          6.36298        4.72528        3.29513
H          6.57310        3.35810        6.44351
H          7.63413        5.55039        6.52080
H          6.10088        5.59058        7.38607
H          6.50641        6.67565        4.53081
H          6.45848        7.66124        6.02783
H          5.01368        6.79245        5.47234
H          4.20516        4.61950        4.92671
H          4.14192        4.07413        6.62190
H          4.42202        2.90606        5.31155
H          9.10860        2.72518        5.58654
H          9.60837        1.15007        3.81818
H         11.10340        1.85916        4.43389
H          9.73348        2.69417        1.80162
H         11.16203        1.62659        1.95059
H         11.26624        3.33884        2.40679
H         10.34470        4.95899        3.85277
H         11.09304        4.30034        5.33217
H          9.55347        5.17937        5.41446
