30

O          1.28716       -0.64981       -0.28857
B          2.80127       -0.42161       -0.51789
C          3.49855       -1.87656       -0.79036
C          3.00226       -2.64502       -2.03966
C          1.74286       -3.49598       -1.87504
O          1.64853       -4.61878       -2.36315
O          0.72554       -2.96435       -1.18967
C          3.42419        0.36299        0.78413
C          4.88781        0.78887        0.62463
C          5.40781        1.57636        1.83879
C          6.78846        2.18962        1.74313
C          7.99409        1.21469        1.54770
F          7.98227        0.63997        0.32870
F          9.17330        1.87156        1.67849
F          7.96706        0.23138        2.48003
F          6.86919        3.10620        0.71649
F          7.07169        2.88890        2.90927
H          0.80077        0.05734       -0.72960
H          2.93773        0.29656       -1.53434
H          3.41290       -2.53725        0.09621
H          4.58381       -1.71900       -0.92424
H          3.76054       -3.33245       -2.44251
H          2.78660       -1.91200       -2.84133
H          0.94940       -2.00865       -0.83832
H          3.32731       -0.26980        1.68979
H          2.81395        1.26538        0.98749
H          4.99507        1.40314       -0.28470
H          5.51538       -0.10221        0.46776
H          5.39404        0.94314        2.73924
H          4.73836        2.42797        2.04321
