27

S          2.66904        1.79382        2.30211
Al         3.35783        0.17384        0.87919
S          4.62069        1.16474       -1.03746
O          5.55714        2.24976       -0.69036
O          5.15972        0.01733       -1.80033
C          3.50627        1.97544       -2.48805
C          2.89457        3.37066       -2.19067
C          1.79844        3.87535       -3.20516
C          1.37577        5.38231       -3.05930
F          0.95712        5.65670       -1.80989
F          2.38102        6.21943       -3.37429
F          0.34929        5.63273       -3.91024
F          2.24860        3.72290       -4.48327
F          0.66319        3.14079       -3.05502
F          2.30611        3.32960       -0.95894
F          3.88983        4.29942       -2.17204
F          4.30121        2.06427       -3.58839
F          2.48720        1.10073       -2.76862
C          1.94968       -1.00349        0.09455
C          0.56550       -0.40629       -0.20229
H          1.49089        2.02473        1.67630
H          4.68379       -0.50528        1.48531
H          1.84583       -1.83430        0.81739
H          2.37073       -1.46146       -0.81635
H          0.12969        0.07026        0.69010
H         -0.15901       -1.16496       -0.54727
H          0.61705        0.36398       -0.98565
