42

C          3.58221       -1.07513       -0.35860
C          3.61640        0.40441        0.03453
C          2.44446        0.86705        0.92663
B          2.24201        0.10882        2.36147
S          3.82771       -0.10029        3.51426
O          3.46251       -0.70442        4.80799
O          4.95204       -0.70621        2.78373
C          4.74256        1.54645        4.11339
C          4.03488        2.60992        5.01246
C          3.49369        2.15958        6.42096
C          3.24394        3.35217        7.42197
F          4.39549        3.88569        7.87130
F          2.50598        4.32934        6.85657
F          2.56413        2.88273        8.49467
F          2.29963        1.53479        6.27108
F          4.36512        1.32351        7.03612
F          4.93377        3.63136        5.24521
F          2.99025        3.14431        4.32122
F          5.85918        1.12788        4.77477
F          5.16043        2.23874        3.00481
C          0.98133        0.58829        3.27702
C         -0.36125        0.26811        2.60392
C         -1.64728        0.57551        3.36752
O         -2.76808        0.42190        2.87452
N         -1.48475        1.03660        4.64433
C          2.41507        2.40568        0.98699
H          4.38980       -1.31448       -1.06778
H          2.62535       -1.33487       -0.84055
H          3.70466       -1.72041        0.52000
H          3.61212        1.01633       -0.88865
H          4.57217        0.61724        0.53941
H          1.52414        0.56488        0.38185
H          2.19928       -1.11358        2.22198
H          1.02124        1.66859        3.49942
H          1.04126        0.05539        4.24072
H         -0.41348       -0.80462        2.35066
H         -0.46220        0.78993        1.63874
H         -0.56104        1.12041        5.05150
H         -2.30843        1.21023        5.20569
H          3.32079        2.80997        1.46113
H          1.55233        2.78139        1.55685
H          2.35680        2.84343       -0.02511
