40

F         -0.35077        1.50560       -0.23317
C          0.80394        1.84574       -0.90007
O          1.62986        2.61254       -0.20126
C          2.15508        2.04587        1.06638
Ga         3.50912        3.35273        1.84309
C          4.25655        2.37495        3.55868
C          3.77742        2.70374        5.00094
C          2.29781        2.29943        5.32999
C          1.67611        2.99803        6.59430
F          2.47457        2.86578        7.67368
F          1.45005        4.30451        6.38043
F          0.48857        2.41153        6.88059
F          1.47923        2.60162        4.28420
F          2.23259        0.95801        5.55056
F          4.56220        2.08501        5.94710
F          3.90686        4.05416        5.20106
F          4.10085        0.98441        3.42836
F          5.63675        2.58140        3.62599
C          2.64643        5.12614        2.30675
C          1.25686        5.32659        2.23730
C          0.67292        6.56719        2.53313
C          1.46506        7.65409        2.91062
C          2.84897        7.47758        2.98094
C          3.42555        6.23519        2.67959
C          3.71859        8.61819        3.43288
F          3.14282        9.83928        3.21839
F          3.99236        8.56064        4.77470
F          4.92584        8.64016        2.80141
C         -0.81232        6.75805        2.39133
F         -1.51644        5.62092        2.63676
F         -1.30236        7.71433        3.23776
F         -1.16305        7.16107        1.12836
F          1.35095        0.65030       -1.30525
F          0.43079        2.50960       -2.02368
H          2.63781        1.08608        0.83210
H          1.29502        1.84817        1.72307
H          4.78667        3.56068        0.93339
H          0.60370        4.50165        1.94489
H          1.01402        8.61758        3.14307
H          4.51253        6.13799        2.73534
