32

C          1.03505       -0.35497       -0.25060
C          2.48120        0.14290       -0.31102
C          3.00391        0.65051        1.03620
C          4.44766        1.15877        0.98657
C          4.95632        1.69131        2.33466
C          6.39578        2.21237        2.27037
In         7.11619        3.01796        4.16801
S          5.58352        5.20745        4.37138
O          5.78615        6.31505        3.41965
O          4.21529        4.65172        4.50041
C          5.85603        6.06654        6.08367
F          7.11534        6.55278        6.17853
F          4.99113        7.09193        6.25338
F          5.67287        5.18985        7.10271
S          9.62011        3.81057        3.67790
O          9.92299        4.27792        2.32708
O         10.40899        4.35160        4.78141
F         10.10897        2.15296        3.62896
H          0.68354       -0.70830       -1.23114
H          0.35515        0.44434        0.08040
H          0.93186       -1.18829        0.46112
H          2.56194        0.95210       -1.05652
H          3.13682       -0.66754       -0.67297
H          2.92669       -0.15935        1.78373
H          2.34682        1.45969        1.39999
H          4.52758        1.96170        0.23265
H          5.11314        0.34801        0.63929
H          4.87648        0.88443        3.08468
H          4.28052        2.48979        2.68208
H          6.49555        3.02045        1.53139
H          7.10257        1.41934        1.98197
H          7.22116        2.43406        5.79775
