7

N          0.96002       -0.05942       -0.06241
N          2.39960       -0.10229        0.02245
N          2.80120        1.06766       -0.72015
H          0.64793       -0.77544        0.59995
H          0.60813       -0.40371       -1.01203
H          3.81492        0.96447       -0.82272
H          2.68090        1.96233       -0.14639
