25

N          0.65107        0.37740       -0.22507
C          2.08868        0.03179        0.00480
C          2.76859        0.98728        0.96593
In         4.90857        0.56531        1.57279
C          6.06831       -0.65171        0.03276
C          5.30878       -1.39369       -1.06786
C          6.25470       -2.15007       -2.00866
S          5.46644       -3.02601       -3.43583
N          5.82204        2.53372        1.32117
H          0.29802       -0.12772       -1.04439
H          0.60574        1.37082       -0.46824
H          2.65157        0.00353       -0.94786
H          2.09929       -0.99878        0.40097
H          2.16937        1.07923        1.88698
H          2.83521        1.99425        0.51601
H          5.07142       -0.06582        3.24081
H          6.70222       -1.35865        0.59593
H          6.75352        0.08291       -0.42805
H          4.69971       -0.69821       -1.66759
H          4.59409       -2.11549       -0.63300
H          6.86479       -2.87575       -1.45164
H          6.94743       -1.44855       -2.49850
H          4.59099       -3.75560       -2.70322
H          6.71394        2.40513        0.83058
H          6.09543        2.92841        2.22648
