38

O          4.03378        0.16696        0.97047
C          4.28911       -0.23116       -0.17878
O          5.33915       -0.26950       -0.85309
C          3.00531       -0.90807       -0.98422
C          2.80311       -2.27408       -0.39871
C          2.33093       -2.42383        0.92437
C          2.20952       -3.67734        1.50753
C          2.55219       -4.83499        0.78279
C          3.04123       -4.70149       -0.52288
C          3.17095       -3.43799       -1.09777
C          2.39965       -6.18642        1.40818
C          0.93207       -6.72940        1.61361
C         -0.03884       -6.86035        0.37884
C          0.26109       -7.86900       -0.80544
C          0.43275       -9.39787       -0.46908
C          0.27150      -10.35074       -1.71540
F          1.03708       -9.94372       -2.74471
F          0.66290      -11.59272       -1.35800
F         -1.00821      -10.41893       -2.12280
F          1.67038       -9.61232        0.03607
F         -0.49484       -9.79020        0.44310
F         -0.81318       -7.75972       -1.64525
F          1.36074       -7.45506       -1.47778
F         -1.25806       -7.21258        0.88634
F         -0.16651       -5.64425       -0.20659
F          0.98763       -7.96125        2.20846
F          0.29220       -5.88807        2.47534
F          3.06854       -7.16172        0.70119
F          2.92408       -6.20417        2.69146
Cl         1.48918        0.09545       -0.64418
C          3.21268       -0.87209       -2.49090
H          2.08747       -1.52435        1.48794
H          1.85934       -3.76250        2.53654
H          3.32685       -5.58561       -1.09200
H          3.56746       -3.36049       -2.10926
H          4.17408       -1.34037       -2.73523
H          3.27059        0.17062       -2.82369
H          2.39269       -1.37346       -3.02811
