35

N          1.80438       -1.94580        0.09026
C          2.49250       -1.96012        1.26575
O          1.92356       -2.00518        2.36249
C          4.01681       -1.93258        1.14674
C          4.61494       -1.04369        0.01407
C          5.50281       -1.69512       -1.03449
S          4.82493       -2.33748       -2.41951
O          3.37142       -2.09384       -2.38920
O          5.56272       -2.09831       -3.65440
C          4.85104       -4.28890       -2.50518
C          4.42065       -5.10111       -1.25243
F          3.19035       -4.74898       -0.82666
F          4.38500       -6.43370       -1.53825
F          5.29166       -4.93368       -0.23494
F          4.00572       -4.65461       -3.52000
F          6.10196       -4.71815       -2.83276
C          6.95856       -1.66385       -0.86021
C          7.70087       -0.31438       -1.25529
C          9.17773       -0.13092       -0.74079
C         10.00076        0.99762       -1.46379
F          9.33351        2.16933       -1.47477
F         11.16758        1.19118       -0.79793
F         10.30506        0.66189       -2.73038
F          9.16417        0.19329        0.58256
F          9.89175       -1.27931       -0.89701
F          7.72112       -0.20693       -2.61262
F          6.99428        0.75299       -0.76446
F          7.29631       -1.83850        0.50087
F          7.61984       -2.64765       -1.56363
H          0.79941       -2.05980        0.14382
H          2.27372       -2.02008       -0.81745
H          4.34504       -2.97345        1.01511
H          4.38584       -1.61949        2.13198
H          5.21414       -0.26009        0.49513
H          3.80220       -0.50719       -0.49336
