41

O          1.33706       -0.52806        0.14377
C          2.27293       -0.74297        1.14307
O          2.10730       -0.20599        2.22053
C          3.45574       -1.56295        0.71954
C          4.54023       -0.69490       -0.04163
C          5.52824       -1.52177       -0.77718
C          5.27359       -2.17494       -1.98318
C          4.10342       -1.84939       -2.77707
C          3.85227       -2.43895       -4.00354
C          4.69774       -3.42508       -4.57702
C          5.83544       -3.76959       -3.79045
C          6.11699       -3.18926       -2.57052
Si         4.32557       -4.24065       -6.18730
C          5.94568       -4.45962       -7.19068
C          5.77431       -5.17078       -8.53620
C          7.05829       -5.36466       -9.31138
F          7.97697       -6.11179       -8.63454
F          6.83773       -6.01438      -10.50084
F          7.66841       -4.18655       -9.62811
C          3.56388       -5.97906       -6.00737
C          3.11871       -3.20768       -7.23028
Br         6.97640       -2.15850        0.35976
H          1.62534       -1.01788       -0.64791
H          3.14350       -2.36840        0.03644
H          3.92429       -2.01265        1.60293
H          5.02205       -0.03685        0.69526
H          4.01780       -0.03242       -0.75286
H          3.41380       -1.07684       -2.42762
H          2.95542       -2.11667       -4.54363
H          6.53237       -4.53268       -4.15586
H          7.00696       -3.49906       -2.02154
H          6.66039       -5.01533       -6.56344
H          6.38145       -3.45976       -7.34166
H          5.09783       -4.61374       -9.20242
H          5.34242       -6.17482       -8.40737
H          4.23863       -6.64247       -5.44619
H          3.34013       -6.45756       -6.97440
H          2.62391       -5.91747       -5.43965
H          3.52646       -2.20725       -7.43421
H          2.16221       -3.07468       -6.70399
H          2.89523       -3.69129       -8.19314
