18

O          0.88265        0.09512        0.00615
B          2.19275       -0.00278        0.56808
S          3.07120       -1.68571       -0.13616
O          4.33385       -2.07152        0.50726
O          1.98032       -2.68305       -0.17133
C          3.56168       -1.57221       -1.99964
F          2.53920       -1.12278       -2.76515
F          4.61890       -0.74994       -2.19365
F          3.90922       -2.80292       -2.45637
C          3.08799        1.33279        0.26087
C          2.65939        2.61051        1.04069
F          1.40160        2.99406        0.72592
F          2.70673        2.40530        2.38147
F          3.47862        3.66740        0.77266
F          4.42436        1.15241        0.58957
F          3.06592        1.71497       -1.07836
H          0.41203       -0.73645        0.16718
H          2.31102       -0.33687        1.74228
