45

C          7.68148        4.38776        0.29134
C          7.18452        2.94988        0.11968
C          7.54470        2.03636        1.29517
C          7.03715        0.59900        1.14363
C          7.35492       -0.29393        2.34616
C          6.82223       -1.72082        2.19360
C          7.12823       -2.63339        3.39766
C          6.55961       -1.96575        4.72367
O          5.33122       -1.74209        4.78416
O          7.46707       -1.72995        5.58650
C          6.47098       -4.02288        3.25012
C          6.78995       -4.83607        1.98046
C          8.27945       -5.08958        1.69454
C          9.00131       -5.83884        2.82254
N         10.45331       -5.86737        2.67973
C         11.12213       -6.75004        1.86058
N         10.66162       -7.77953        1.22560
N         12.49402       -6.44904        1.74535
O          8.54842       -2.75716        3.58825
H          7.40854        5.02095       -0.56597
H          8.77691        4.41913        0.39412
H          7.25508        4.84782        1.19565
H          7.59859        2.52539       -0.81122
H          6.08893        2.95271       -0.01172
H          7.13581        2.46652        2.22643
H          8.64157        2.02560        1.42576
H          7.46819        0.15641        0.22658
H          5.94374        0.61943        0.98455
H          6.92176        0.15336        3.25573
H          8.44480       -0.33369        2.50651
H          7.24772       -2.16747        1.27646
H          5.72715       -1.68921        2.06925
H          5.38228       -3.87221        3.31305
H          6.74698       -4.60328        4.14592
H          6.35500       -4.33129        1.10246
H          6.26381       -5.80603        2.05279
H          8.78949       -4.12388        1.56639
H          8.38921       -5.64691        0.74914
H          8.64224       -6.87737        2.91193
H          8.79183       -5.33294        3.77299
H         10.89172       -4.95719        2.79437
H          9.64057       -7.81018        1.28195
H         12.93105       -6.18798        2.62647
H         12.97927       -7.22479        1.30214
H          8.59226       -2.35122        4.51412
