21

C          2.46444        0.01741       -0.04987
C          0.95469       -0.02779       -0.01795
C          0.25734       -1.23467       -0.15769
C         -1.14378       -1.26314       -0.12659
C         -1.92406       -0.10148        0.04025
C         -1.19799        1.10017        0.18612
C          0.19917        1.14311        0.15811
Al        -3.94598       -0.20506        0.00861
Br        -4.76109        1.25625        1.77091
C         -4.73225        0.45976       -1.71358
H          2.88886       -0.98900       -0.17643
H          2.87852        0.44030        0.87958
H          2.83527        0.64276       -0.87807
H          0.82174       -2.16515       -0.28734
H         -1.64616       -2.23205       -0.22669
H         -1.74406        2.03632        0.34282
H          0.71753        2.10088        0.28035
H         -4.39415       -1.73399        0.36799
H         -4.46456        1.50883       -1.91832
H         -5.83307        0.40072       -1.69845
H         -4.38257       -0.14234       -2.56993
