32

C          2.36901       -0.74810        3.48203
C          2.78659       -0.38083        2.06885
As         3.06026       -2.12481        0.98806
C          2.61889       -1.06187       -0.89192
F          3.06245        0.25375       -0.97728
F          3.15540       -1.68773       -1.99720
F          1.26166       -0.98567       -1.14870
C          5.15663       -1.82824        0.67246
C          5.90899       -2.99426        0.83784
C          7.30178       -2.99297        0.69429
C          7.97623       -1.81013        0.36466
C          7.23260       -0.64303        0.18765
C          5.83330       -0.65122        0.34582
C          7.92369        0.62684       -0.22066
F          9.27160        0.60316        0.01511
F          7.78062        0.89401       -1.55705
F          7.43729        1.72153        0.43408
C          8.10172       -4.23933        0.94184
F          7.38302       -5.37925        0.75746
F          9.20012       -4.33352        0.12848
F          8.58940       -4.30100        2.22633
H          2.01990        0.12390        4.06055
H          3.19904       -1.20744        4.04022
H          1.54373       -1.48168        3.46325
H          3.70326        0.22411        2.05037
H          1.99324        0.15815        1.53269
H          1.49516       -2.42551        1.15645
H          3.43881       -2.95621        2.30311
H          3.26143       -3.42217        0.08729
H          5.38716       -3.92777        1.08017
H          9.05848       -1.80230        0.24524
H          5.27916        0.27829        0.19842
