22

Br         4.11536       -0.28520       -2.24165
In         3.44179        0.12856        0.23286
S          3.93772       -2.17142        1.62319
O          3.76425       -1.79552        3.04759
O          3.28285       -3.41462        1.16660
C          5.81454       -2.67721        1.57754
F          6.21500       -3.00994        0.32662
F          6.61383       -1.65756        2.00146
F          6.04571       -3.73907        2.38570
C          4.86159        1.53435        1.15506
C          6.25229        1.58134        0.52080
C          7.19957        2.53666        1.25162
N          8.52736        2.56969        0.60631
H          1.70420        0.07845        0.37348
H          4.91849        1.23180        2.21235
H          4.38573        2.52836        1.12712
H          6.19172        1.87451       -0.53918
H          6.70367        0.57447        0.52901
H          7.23922        2.23988        2.31966
H          6.78456        3.55872        1.22247
H          8.89406        1.61624        0.55300
H          9.18652        3.09282        1.18562
