42

C          0.60800       -0.98470       -0.85495
C          2.07611       -1.40674       -1.01349
C          2.89645       -1.38699        0.26216
As         4.95343       -1.49547       -0.26460
C          5.75754       -0.45881        1.48631
C          4.87306       -0.27691        2.72042
C          4.52074       -1.55900        3.48809
C          7.15674       -0.95607        1.82017
C          5.27794       -3.46871        0.46863
C          5.64285       -4.36769       -0.69887
C          6.20245       -5.75682       -0.34337
C          5.19929       -6.64751        0.38384
N          5.76289       -7.98804        0.64728
H          0.06936       -1.00077       -1.81892
H          0.53603        0.03682       -0.44889
H          0.07106       -1.65016       -0.16031
H          2.56466       -0.73496       -1.74650
H          2.11787       -2.41204       -1.46575
H          2.62084       -2.20645        0.94526
H          2.77677       -0.42624        0.78623
H          4.72731       -0.01709       -0.93949
H          6.49851       -1.51848       -0.79310
H          4.51317       -2.15022       -1.67416
H          5.84177        0.51655        0.97702
H          3.93887        0.22781        2.42630
H          5.36981        0.41875        3.43317
H          3.97214       -2.26471        2.85082
H          3.89362       -1.33366        4.36508
H          5.42121       -2.07580        3.85172
H          7.14515       -1.85562        2.45644
H          7.75743       -0.19412        2.35496
H          7.70119       -1.21628        0.89677
H          4.36851       -3.79736        0.99484
H          6.10460       -3.40120        1.19237
H          6.39424       -3.83766       -1.31623
H          4.76464       -4.49620       -1.35626
H          7.10561       -5.65445        0.28137
H          6.51889       -6.27411       -1.27174
H          4.26133       -6.67815       -0.20855
H          4.94420       -6.19301        1.35305
H          5.98900       -8.43762       -0.24317
H          5.05896       -8.58082        1.09151
