40

C          1.52760       -1.43353       -1.93627
C          2.52508       -0.80100       -0.96246
C          3.28518        0.38584       -1.56176
C          4.27692        1.01240       -0.56583
C          5.06624        2.21464       -1.07455
S          4.33968        3.71476       -0.93762
O          4.88942        4.75391       -1.80086
O          2.88923        3.54622       -0.83028
C          4.75347        4.44125        0.80205
C          3.98800        5.70706        1.31343
C          4.01103        6.99940        0.42636
F          5.26294        7.33618        0.06808
F          3.25061        6.87165       -0.66711
F          3.50172        8.03082        1.16002
F          2.68353        5.40011        1.53862
F          4.53858        6.07195        2.52467
F          4.50398        3.47012        1.74401
F          6.08920        4.72419        0.85875
C          6.50502        2.06848       -1.32271
C          6.96106        1.15838       -2.52870
C          6.59366        1.58614       -4.00229
C          7.15155        2.93869       -4.57747
F          8.48165        3.05111       -4.37551
F          6.94086        2.93863       -5.92316
F          6.53332        4.00022       -4.06501
F          7.10156        0.60051       -4.81420
F          5.24836        1.60341       -4.16815
F          8.32449        1.00708       -2.51112
F          6.42040       -0.09214       -2.37887
F          7.18642        3.24719       -1.50327
F          7.16878        1.42067       -0.22863
H          0.99497       -2.28425       -1.48441
H          2.03692       -1.80018       -2.84063
H          0.77411       -0.69966       -2.25971
H          3.24697       -1.56643       -0.62674
H          1.99268       -0.46849       -0.05460
H          2.57273        1.16336       -1.87757
H          3.82064        0.05815       -2.46663
H          4.99145        0.24452       -0.22969
H          3.71298        1.30273        0.33483
