78

C         14.55983       -2.66366        4.59949
C         14.58834       -2.58332        3.07131
C         13.25926       -2.97209        2.41569
C         13.28370       -2.89270        0.88650
C         11.96305       -3.29152        0.22028
C         11.99712       -3.19340       -1.30787
C         10.68595       -3.60231       -1.99107
C         10.72362       -3.46372       -3.51990
Si         9.14556       -3.98208       -4.46152
C          8.75743       -5.79892       -4.26233
C          8.19274       -6.32808       -3.07655
C          7.89922       -7.67925       -2.93466
C          8.13938       -8.62492       -3.97203
C          8.72481       -8.08911       -5.15307
C          9.01344       -6.73477       -5.28856
C          7.78592      -10.03185       -3.80678
C          7.13751      -10.74464       -4.91921
F          7.01648      -10.02572       -6.07630
F          7.75352      -11.93932       -5.30182
F          5.81756      -11.16007       -4.65027
C          8.00055      -10.75588       -2.58120
C          8.88653      -10.27576       -1.56257
C          9.15587      -10.99278       -0.40759
C          8.57400      -12.25727       -0.14024
C          7.70215      -12.74298       -1.14281
C          7.42346      -12.03769       -2.30410
Si         8.99964      -13.24618        1.36723
C          8.89907      -12.14287        2.93114
C          9.26504      -12.85825        4.23610
C          9.18807      -11.98873        5.47209
F          7.94186      -11.47639        5.68171
F          9.51013      -12.69322        6.60486
F         10.04484      -10.92862        5.42452
C          7.80513      -14.70241        1.59580
C         10.76738      -13.94332        1.28729
C          7.70056       -2.92200       -3.83579
C          9.44730       -3.56294       -6.28636
H         15.52666       -2.38014        5.03938
H         14.32484       -3.68356        4.93885
H         13.79342       -1.99383        5.01802
H         15.38689       -3.23792        2.68280
H         14.85916       -1.55965        2.76048
H         12.45750       -2.31859        2.80337
H         12.98803       -3.99706        2.72410
H         14.09231       -3.53969        0.50269
H         13.54942       -1.86475        0.58070
H         11.15043       -2.65222        0.60899
H         11.70271       -4.32316        0.51431
H         12.81563       -3.82487       -1.69643
H         12.24956       -2.15800       -1.60057
H          9.86466       -2.98879       -1.58047
H         10.44856       -4.64509       -1.72080
H         11.55601       -4.06729       -3.92338
H         10.95161       -2.41582       -3.79097
H          7.94461       -5.65920       -2.24573
H          7.42884       -8.02717       -2.01336
H          8.96960       -8.76031       -5.97539
H          9.46319       -6.39929       -6.22808
H          9.39697       -9.32448       -1.71555
H          9.86158      -10.55551        0.30779
H          7.21251      -13.71297       -1.01013
H          6.73739      -12.48363       -3.02135
H          7.87500      -11.74301        2.99244
H          9.56008      -11.27442        2.78084
H         10.29250      -13.25153        4.20501
H          8.59917      -13.71419        4.42499
H          6.76822      -14.35444        1.70699
H          8.06213      -15.29962        2.48360
H          7.83832      -15.37735        0.72862
H         11.49935      -13.13091        1.16792
H         10.86942      -14.60375        0.41422
H         11.04363      -14.52319        2.18184
H          7.45761       -3.14563       -2.78708
H          6.79670       -3.11985       -4.42973
H          7.92909       -1.84767       -3.90633
H         10.31753       -4.10253       -6.68731
H          9.63783       -2.48608       -6.40932
H          8.57731       -3.82637       -6.90480
