31

C          2.03614       -1.08427       -0.07683
C          3.14479       -0.18927        0.50021
C          3.42959        1.05369       -0.37341
B          2.21887        2.11901       -0.73827
C          1.30103        1.64146       -2.01462
C         -0.06809        1.33861       -1.90817
C         -0.85070        0.96591       -3.00845
C         -0.29617        0.88239       -4.29230
C          1.07013        1.18495       -4.42638
C          1.83666        1.55347       -3.31901
C         -1.13122        0.48561       -5.48728
O          2.92000        3.41650       -1.07589
C          2.82177        0.19017        1.95477
H          2.23552       -1.33744       -1.12887
H          1.06391       -0.57232       -0.05056
H          1.94245       -2.02525        0.49225
H          4.06628       -0.80772        0.53280
H          3.89993        0.70484       -1.31509
H          4.21214        1.65010        0.13399
H          1.43345        2.26347        0.23322
H         -0.53468        1.40818       -0.91934
H         -1.91568        0.74437       -2.87287
H          1.53356        1.13414       -5.41853
H          2.89367        1.79952       -3.46304
H         -2.19314        0.39497       -5.21580
H         -0.81424       -0.48396       -5.90700
H         -1.05757        1.22452       -6.30173
H          2.24580        4.04212       -1.37471
H          1.92765        0.82951        1.99387
H          3.65088        0.75806        2.40513
H          2.64238       -0.70264        2.57791
