29

C          0.29372       -0.32559        0.42943
C          1.76093       -0.34946       -0.01102
C          2.64502       -1.27212        0.83635
C          4.11744       -1.30346        0.40575
C          5.01696       -2.19258        1.28553
B          6.52091       -2.40814        0.70632
C          7.59498       -1.19290        0.82543
C          7.38406       -0.04891       -0.18499
C          8.52051        0.98208       -0.20491
I          7.46502       -4.22040        2.05394
H         -0.31302        0.35111       -0.19186
H          0.19814        0.00744        1.47469
H         -0.15671       -1.32833        0.36574
H          2.17132        0.67490        0.02358
H          1.82209       -0.65918       -1.06892
H          2.23740       -2.29901        0.80555
H          2.58442       -0.95958        1.89498
H          4.49741       -0.26690        0.39699
H          4.17772       -1.64812       -0.64317
H          4.52502       -3.17644        1.38448
H          5.04104       -1.77044        2.30923
H          6.52498       -2.93077       -0.40346
H          8.61106       -1.59609        0.66625
H          7.60469       -0.76752        1.84847
H          6.43689        0.47626        0.02395
H          7.26579       -0.47721       -1.19630
H          8.64558        1.45079        0.78445
H          8.34305        1.78870       -0.93626
H          9.47988        0.50397       -0.45853
