22

N          0.95321        0.21476        0.23687
C          2.42602        0.08172        0.33091
C          2.87716       -1.36286        0.08942
C          4.39199       -1.57242        0.14380
In         5.10782       -3.70473       -0.14892
C          4.64652       -4.80190        1.78231
N          3.84689       -3.97289        2.72144
O          7.23496       -3.55875       -0.12039
H          0.65768        1.13377        0.57273
H          0.52468       -0.46641        0.86858
H          2.82965        0.41572        1.30921
H          2.87377        0.73715       -0.43547
H          2.47779       -1.68606       -0.88742
H          2.38304       -2.00483        0.84351
H          4.78660       -1.22401        1.11707
H          4.89505       -0.95793       -0.62207
H          4.67959       -4.46051       -1.69748
H          5.63041       -5.09933        2.19781
H          4.09413       -5.73338        1.57596
H          4.13949       -2.99664        2.66158
H          3.99639       -4.25198        3.69550
H          7.48570       -3.41607        0.80506
