20

N          0.91878        0.25621       -0.29784
C          2.32614       -0.08211        0.00355
C          2.96468        0.97460        0.89814
C          4.42030        0.64946        1.26062
N          4.95689        1.67779        2.14189
S          6.40661        2.16417        1.90347
O          6.95878        2.00618        0.54698
O          6.67558        3.42009        2.60086
C          7.53130        0.97212        2.87236
F          7.25332        0.96639        4.20619
F          7.37558       -0.31878        2.43881
F          8.86030        1.26203        2.75305
H          0.55304       -0.37110       -1.01676
H          0.88557        1.19565       -0.70031
H          2.94663       -0.20252       -0.90734
H          2.33151       -1.05693        0.52023
H          2.37260        1.08995        1.81968
H          2.94714        1.95367        0.38782
H          5.00912        0.54626        0.32889
H          4.43837       -0.34284        1.76055
