35

N          2.88176        1.92978        2.00417
C          3.40195        0.95015        1.02895
C          3.75659       -0.37923        1.70074
C          4.26863       -1.42992        0.71029
In         5.18397       -3.29734        1.52326
S          3.31539       -3.94578        3.41824
O          2.18564       -2.99213        3.30490
O          2.97147       -5.37479        3.55972
C          4.00315       -3.50346        5.18505
F          4.52440       -2.24412        5.19468
F          3.01736       -3.54601        6.11394
F          4.98319       -4.34811        5.58588
C          7.06731       -2.63782        2.56189
C          7.38200       -1.26627        2.53610
C          8.51275       -0.73930        3.16992
C          9.37583       -1.58535        3.87199
C          9.10944       -2.95340        3.89880
C          7.97917       -3.47874        3.23914
C          7.72514       -4.95673        3.24545
O          6.64413       -5.47737        3.09414
O          8.83575       -5.76058        3.42054
H          2.84547        2.86201        1.58859
H          3.52910        1.99296        2.79335
H          4.29623        1.31488        0.48000
H          2.61830        0.77684        0.27161
H          2.87936       -0.76677        2.23918
H          4.51395       -0.17217        2.48043
H          5.05380       -0.99622        0.06255
H          3.45413       -1.74056        0.03713
H          5.23798       -4.69939        0.47909
H          6.71615       -0.57800        2.00864
H          8.71368        0.33435        3.13149
H         10.24183       -1.18439        4.40179
H          9.76850       -3.60128        4.48698
H          9.62304       -5.18829        3.41141
