37

C          4.61487       -2.87307        0.25075
C          4.28374       -1.37879        0.25963
C          4.74127       -0.67652        1.54306
C          4.32260        0.80143        1.52545
C          4.99917        1.78784        2.50387
C          4.59389        3.25752        2.19671
C          3.18182        3.71685        1.57789
C          1.84021        3.57298        2.38209
C          0.62790        4.38191        1.76887
F          0.45923        4.12760        0.45556
F         -0.50210        4.00738        2.41364
F          0.77040        5.71005        1.93391
F          1.44688        2.27398        2.40194
F          1.98730        4.03398        3.64598
F          3.31249        5.06448        1.34227
F          2.99908        3.11414        0.36857
F          4.77196        4.06510        3.28473
F          5.44391        3.72109        1.21151
S          4.56609        1.27794        4.25378
O          3.18149        1.65154        4.52255
O          4.97539       -0.10673        4.42354
C          5.56131        2.15762        5.69856
F          5.85525        3.44931        5.55284
F          4.69470        2.05269        6.74955
F          6.65374        1.46587        6.01781
C          6.65468        1.72598        2.38913
O          7.21274        2.11532        3.43270
O          7.07271        1.31605        1.29711
H          4.28174       -3.35940       -0.67832
H          4.12985       -3.39026        1.09283
H          5.69869       -3.03605        0.34640
H          3.19518       -1.24393        0.12871
H          4.75981       -0.89010       -0.60734
H          5.83433       -0.74254        1.62650
H          4.31291       -1.18882        2.41492
H          3.22672        0.86531        1.59764
H          4.61233        1.20487        0.54216
