73

N          2.20866       -0.16801       -1.03485
C          3.27375        0.86125       -1.06607
C          3.54307        1.43153        0.32450
C          4.64696        2.49267        0.37947
B          4.91317        3.12559        1.88088
C          3.59178        3.90822        2.41854
C          3.07181        5.04618        1.75809
C          1.97843        5.76537        2.23805
C          1.31093        5.38333        3.42214
C          1.79542        4.23167        4.07748
C          2.89608        3.52491        3.58468
Si         0.07088        6.52332        4.21841
C          1.08784        7.84725        5.15406
C          2.06115        7.19706        6.14613
C          3.14989        8.08020        6.74972
C          4.56160        8.07806        6.04942
C          4.74613        8.59952        4.57054
C          4.47277       10.10663        4.18080
C          5.26608       11.29225        4.86235
C          6.83825       11.31342        4.78273
F          7.26129       11.16723        3.51595
F          7.25762       12.52034        5.23464
F          7.39230       10.36765        5.54976
F          4.83677       12.42263        4.22642
F          4.91305       11.38664        6.16731
F          4.72010       10.18633        2.84394
F          3.15611       10.38570        4.37544
F          6.04035        8.35281        4.23203
F          3.94705        7.85984        3.76141
F          5.43046        8.77799        6.83732
F          4.98178        6.78235        6.01905
F          2.75125        9.38770        6.90080
F          3.43531        7.62393        8.02686
C         -1.01587        7.43082        2.96313
C         -1.04632        5.62437        5.45678
C          6.21087        4.14718        1.86750
C          6.63834        4.64966        3.25085
C          7.84148        5.60240        3.25905
C          8.34891        5.93680        4.65988
N          9.44452        6.92875        4.61567
H          1.89699       -0.38481       -1.98368
H          1.39438        0.22157       -0.55373
H          3.04207        1.70139       -1.75290
H          4.19056        0.38301       -1.45260
H          3.79110        0.60290        1.00992
H          2.60110        1.86740        0.71063
H          4.40295        3.29686       -0.34676
H          5.59019        2.04362        0.01030
H          5.15143        2.18997        2.67059
H          3.55984        5.39065        0.84034
H          1.64851        6.65478        1.68947
H          1.31210        3.88408        4.99728
H          3.25298        2.64342        4.12554
H          0.43369        8.56838        5.66772
H          1.62514        8.40666        4.37669
H          2.55854        6.32692        5.68978
H          1.50662        6.81087        7.01444
H         -0.40701        7.98749        2.23711
H         -1.68185        8.14780        3.46538
H         -1.63735        6.71853        2.40266
H         -0.46555        5.10753        6.23363
H         -1.66070        4.86912        4.94686
H         -1.72107        6.33502        5.95679
H          6.01699        5.02505        1.21568
H          7.07162        3.62620        1.40228
H          6.86243        3.77372        3.88709
H          5.78423        5.15310        3.73803
H          7.58490        6.54083        2.73970
H          8.66674        5.14787        2.67819
H          8.63523        4.99327        5.16784
H          7.53235        6.37491        5.25387
H         10.21988        6.54922        4.06728
H          9.81408        7.08633        5.55520
