59

C          3.43729       -0.15900        3.14876
C          2.78827        0.08711        1.79383
Sb         2.72692       -1.76484        0.50189
C          2.73345       -0.33260       -1.43133
F          3.41764        0.87399       -1.28070
F          3.30731       -0.91240       -2.54865
F          1.46614        0.04874       -1.84760
C          5.03803       -1.79614        0.38157
C          5.63698       -3.06118        0.35730
C          7.02647       -3.22461        0.35269
C          7.88971       -2.10884        0.36289
C          7.28715       -0.83250        0.35764
C          5.89456       -0.68260        0.36865
Si         9.75199       -2.30875        0.44425
C         10.62933       -1.63580       -1.11615
C         10.08577       -2.15991       -2.45202
C         10.93860       -1.71498       -3.62820
C         10.51298       -2.20838       -5.05764
C          9.08575       -1.86327       -5.62878
C          8.62271       -0.36371       -5.84387
C          9.48281        0.55430       -6.79137
C          8.74465        1.86500       -7.26321
F          8.22904        2.53598       -6.21973
F          9.64648        2.65941       -7.88103
F          7.76374        1.58777       -8.13841
F         10.60909        0.94121       -6.14572
F          9.83053       -0.12863       -7.91460
F          7.37543       -0.45080       -6.38636
F          8.52206        0.23689       -4.63434
F          8.99510       -2.49111       -6.83463
F          8.15724       -2.41308       -4.80095
F         11.42964       -1.76575       -5.96683
F         10.56623       -3.57539       -5.04536
F         11.04208       -0.34544       -3.68451
F         12.22933       -2.19181       -3.48559
C         10.49010       -1.32785        1.88635
C         10.22046       -4.13346        0.63727
H          3.43320        0.74085        3.79014
H          4.48711       -0.47219        3.03777
H          2.92197       -0.95857        3.70408
H          3.31124        0.86618        1.22346
H          1.73301        0.38517        1.88614
H          2.78571       -2.84514        1.92843
H          0.93941       -1.73264        0.44021
H          2.78908       -3.14484       -0.62190
H          4.99579       -3.95185        0.34317
H          7.44348       -4.23682        0.35212
H          7.91437        0.06719        0.35603
H          5.47827        0.32854        0.36334
H         11.69855       -1.88513       -1.01736
H         10.56491       -0.53662       -1.10066
H          9.05578       -1.81073       -2.60664
H         10.05639       -3.25978       -2.47696
H         10.24325       -0.25976        1.80274
H         11.58638       -1.42028        1.91244
H         10.09317       -1.68465        2.84699
H          9.86955       -4.74520       -0.20612
H          9.78166       -4.55456        1.55294
H         11.31259       -4.24683        0.70315
