63

C          3.56974       -1.13058        1.76738
B          2.92217       -0.51108        0.38940
C          3.57078       -1.13795       -0.96852
C          3.07142       -0.79393       -2.24773
C          3.57620       -1.32891       -3.43249
C          4.63169       -2.26945       -3.42312
C          5.13734       -2.63370       -2.15654
C          4.62237       -2.08493       -0.97910
Si         5.36865       -2.98117       -4.97891
C          7.20959       -2.47439       -5.11500
C          7.41540       -0.95553       -5.06291
C          8.87324       -0.54895       -5.16880
C          9.17381        0.98758       -5.30673
C          8.66614        2.00369       -4.21535
C          9.15110        1.91162       -2.71027
C         10.69550        2.00506       -2.42157
C         11.05820        2.29467       -0.91560
F         10.45541        1.42174       -0.09315
F         12.39677        2.16570       -0.77259
F         10.72020        3.54493       -0.55801
F         11.28967        0.83386       -2.75467
F         11.24819        3.00613       -3.15892
F          8.55731        2.96486       -2.08119
F          8.67912        0.76455       -2.17127
F          8.99466        3.24679       -4.67002
F          7.30987        1.92389       -4.16490
F         10.52120        1.16626       -5.43267
F          8.59018        1.40696       -6.47223
F          9.60485       -1.01817       -4.10371
F          9.44986       -1.09660       -6.30094
C          5.34954       -4.87637       -4.98897
C          4.47352       -2.35206       -6.52768
C          2.91194        1.15342        0.40275
C          4.21736        1.89902        0.74743
C          5.31601        1.68716       -0.30233
C          3.97962        3.40365        0.95724
H          3.45036       -2.22717        1.83724
H          3.07844       -0.70964        2.66331
H          4.65265       -0.93012        1.88936
H          1.72006       -0.84544        0.33150
H          2.24370       -0.07926       -2.30555
H          3.13839       -1.01472       -4.38620
H          5.95347       -3.36370       -2.08487
H          5.05119       -2.40201       -0.02387
H          7.62976       -2.88800       -6.04546
H          7.75212       -2.95020       -4.28262
H          7.01192       -0.55204       -4.12279
H          6.87836       -0.45353       -5.88185
H          5.85101       -5.27538       -4.09549
H          5.85806       -5.28416       -5.87559
H          4.31663       -5.25242       -4.98198
H          4.48938       -1.25494       -6.59622
H          3.41926       -2.66370       -6.52448
H          4.94097       -2.75476       -7.43867
H          2.15413        1.46538        1.14760
H          2.54059        1.55172       -0.56474
H          4.59364        1.49090        1.70434
H          4.98864        2.06560       -1.28562
H          5.54991        0.62209       -0.42627
H          6.24327        2.21910       -0.02988
H          3.60443        3.86771        0.02921
H          4.90294        3.93521        1.24703
H          3.22526        3.57884        1.74005
