39

C          3.93366        0.98660       -2.02923
In         3.32213       -0.09330       -0.21264
S          0.88975        1.00182        0.31038
O          0.28081        0.54663        1.56642
O          0.73115        2.42199       -0.01839
F         -0.08557        0.23311       -0.88122
C          4.36064        0.63175        1.61248
C          5.63060        1.23456        1.52767
C          6.32865        1.65558        2.66404
C          5.78192        1.50230        3.95406
C          4.50129        0.92195        4.04286
C          3.81260        0.49716        2.90154
Si         6.73877        2.02896        5.47651
C          6.92323        3.93202        5.50635
C          7.65188        4.47131        6.74248
C          7.83900        5.97368        6.75283
F          6.65849        6.65151        6.71408
F          8.48852        6.38847        7.88610
F          8.58282        6.41658        5.69924
C          5.85031        1.48131        7.05525
C          8.47681        1.27225        5.45525
H          3.16244        0.88510       -2.80303
H          4.87823        0.58610       -2.42459
H          4.06718        2.05287       -1.80556
H          2.93889       -1.80387       -0.24642
H          6.09736        1.38573        0.54850
H          7.31826        2.10968        2.53832
H          4.02805        0.79241        5.02096
H          2.81655        0.06261        3.02492
H          5.91690        4.37322        5.43745
H          7.45599        4.23618        4.59143
H          8.66022        4.04042        6.83785
H          7.10821        4.22560        7.66709
H          4.86047        1.95059        7.14714
H          6.43107        1.74175        7.95231
H          5.70400        0.39195        7.06075
H          9.03100        1.57731        4.55588
H          8.41239        0.17495        5.44540
H          9.07033        1.56593        6.33399
