34

C          0.78648       -0.17483       -0.07809
C          2.31804       -0.17351       -0.14035
C          2.90715        1.06570       -0.82811
C          4.43964        1.18617       -0.72768
C          5.03078        2.44103       -1.37790
In         7.23458        2.89790       -1.12688
C          8.50506        1.14325       -0.37323
C          9.43293        1.52914        0.78281
C         10.46075        2.60335        0.41406
C          7.72237       -0.13152       -0.04471
N          7.92748        3.03339       -3.19755
H          0.39210       -1.07415        0.42002
H          0.34353       -0.13129       -1.08540
H          0.41579        0.70126        0.47689
H          2.66787       -1.08311       -0.65889
H          2.72319       -0.24096        0.88445
H          2.45527        1.97297       -0.38653
H          2.60929        1.07298       -1.89276
H          4.89297        0.28258       -1.17255
H          4.70725        1.14329        0.34467
H          4.48279        3.33166       -1.02169
H          4.88655        2.39973       -2.47176
H          7.49863        4.41270       -0.18798
H          9.14435        0.92128       -1.25048
H          9.97704        0.63054        1.15784
H          8.83520        1.88409        1.64340
H         11.10364        2.25837       -0.41195
H         11.11261        2.86023        1.26407
H          9.95860        3.52296        0.07887
H          6.99546        0.02131        0.77016
H          8.38976       -0.96004        0.28312
H          7.15219       -0.49960       -0.91079
H          8.89909        2.70383       -3.21870
H          7.99438        4.01000       -3.50148
