22

N          1.37003       -0.40545        0.45174
Ga         3.01257        0.25223       -0.31588
C          4.08229       -1.40993       -1.07273
C          5.42163       -1.17491       -1.79286
F          5.25035       -0.39860       -2.89347
F          6.30420       -0.53635       -0.97553
F          6.04426       -2.31963       -2.21511
F          4.38724       -2.31456       -0.03816
F          3.31238       -2.14870       -1.98253
C          4.12292        0.98983        1.22895
C          3.39002        2.12543        1.94508
C          4.07010        2.75517        3.15860
O          3.62888        3.68819        3.80142
O          5.26275        2.18825        3.50832
H          1.51875       -1.28439        0.95350
H          0.68909       -0.62625       -0.27773
H          2.73369        1.29320       -1.48441
H          5.09499        1.31938        0.82549
H          4.29907        0.13410        1.90525
H          2.39635        1.78954        2.28612
H          3.17573        2.95926        1.25577
H          5.40703        1.47208        2.84723
