21

I          0.93315       -0.02274       -0.19015
N          3.05416        0.03626       -0.11138
C          3.45032        0.77256        1.05734
C          4.99437        0.78631        1.07598
C          5.58377        1.53992        2.27576
C          7.11669        1.56677        2.32200
C          7.68657        2.32397        3.52903
C          9.21799        2.35419        3.57948
H          3.11735        0.34372        2.04715
H          3.11553        1.85014        1.09892
H          5.35005        1.23749        0.13318
H          5.35136       -0.25840        1.07219
H          5.20538        1.08684        3.20981
H          5.20728        2.57873        2.27243
H          7.50489        2.02274        1.39294
H          7.50266        0.53106        2.32975
H          7.29915        1.86804        4.45669
H          7.30038        3.35801        3.52181
H          9.63597        1.33655        3.62549
H          9.58812        2.90420        4.45817
H          9.63777        2.83846        2.68419
