36

C          6.02991       -2.52687       -0.39402
C          5.29620       -1.18435       -0.47527
C          5.68123       -0.20334        0.64281
C          4.96471        1.14889        0.58315
Ga         5.41511        2.37520        2.12456
C          4.10755        3.99322        2.05028
F          2.77279        3.64868        2.24133
F          4.33714        4.99110        2.98752
F          4.10920        4.66880        0.82974
C          7.27480        3.19107        1.96389
C          7.72291        3.83924        0.79634
C          9.00124        4.40450        0.70745
C          9.88681        4.33898        1.78993
C          9.46534        3.69901        2.95491
C          8.17963        3.13696        3.03613
C         10.37301        3.63101        4.15062
F         11.64743        4.04547        3.88305
F          9.92938        4.41018        5.18584
F         10.47737        2.36468        4.65441
C          9.47519        5.05511       -0.56115
F          8.46554        5.37089       -1.41279
F         10.16924        6.21339       -0.32775
F         10.33533        4.24826       -1.26755
H          5.73220       -3.21124       -1.20310
H          5.82574       -3.03218        0.56325
H          7.12002       -2.38541       -0.46054
H          4.20579       -1.35365       -0.44026
H          5.49624       -0.71025       -1.45205
H          6.77585       -0.04978        0.61176
H          5.48207       -0.68653        1.61709
H          3.87196        0.99335        0.59261
H          5.19205        1.65477       -0.37159
H          5.29988        1.69882        3.56588
H          7.05668        3.91838       -0.06569
H         10.88064        4.77947        1.72459
H          7.87624        2.64524        3.96485
