46

C          2.92350        3.24885       -4.91289
O          4.30536        3.51014       -4.79454
C          4.86271        2.94404       -3.61170
C          6.34678        3.27875       -3.51625
O          6.64907        4.64553       -3.28162
C          6.35637        5.14296       -1.96480
C          7.13817        4.46429       -0.83547
Ta         9.29790        4.73111       -0.82759
S         10.55142        2.71771       -0.17552
O         11.38249        2.32398        0.97124
O          9.08016        2.34789       -0.14616
C         11.15797        1.41678       -1.51540
C         12.49658        1.69706       -2.27686
C         13.75319        2.03189       -1.40042
C         15.11996        2.02643       -2.18197
F         15.06330        2.77907       -3.29694
F         16.08098        2.53536       -1.37813
F         15.48727        0.77599       -2.52423
F         13.60227        3.27715       -0.87976
F         13.88446        1.13380       -0.39225
F         12.80053        0.57911       -3.02167
F         12.30506        2.72804       -3.13728
F         11.27803        0.22280       -0.86865
F         10.20529        1.27116       -2.47434
C          9.28152        6.79123       -0.01396
O          8.67368        7.87031       -0.87017
C          8.49678        9.04750       -0.30120
F          9.64629        9.62681        0.19094
F          7.98040        9.91664       -1.21288
F          7.61924        9.04121        0.76837
H          2.57782        3.72685       -5.83921
H          2.35151        3.66491       -4.06043
H          2.71285        2.16202       -4.97049
H          4.75402        1.83922       -3.63240
H          4.31315        3.31107       -2.72158
H          6.82317        3.03824       -4.47876
H          6.79944        2.62362       -2.74946
H          5.26360        5.07933       -1.77736
H          6.60630        6.21202       -2.02476
H          6.87668        3.40060       -0.73086
H          6.84543        4.94191        0.12233
H         10.10409        4.06683       -2.26645
H         10.00304        4.80899        0.80786
H          9.67657        5.90786       -2.08737
H         10.31676        7.10383        0.20588
H          8.72589        6.81907        0.93993
