43

N          4.05517        1.23390        0.15027
C          3.43421        0.09344       -0.28348
O          2.97184       -0.01486       -1.42336
C          3.35094       -1.00958        0.76311
C          4.65972       -1.81344        0.91944
P          6.03784       -1.12489        2.13530
C          4.94165       -1.80197        3.61935
O          5.48170       -1.28802        4.89122
C          4.77463       -1.51117        5.98185
F          4.57489       -2.84533        6.27343
F          5.42194       -0.97404        7.05200
F          3.51181       -0.95771        5.96986
C          7.23400       -0.37253        0.78810
C          7.58028        1.09047        1.04762
C          8.92474        1.53228        0.45482
C          9.23903        3.00961        0.69266
N         10.54036        3.35728        0.13089
C         11.04910        4.64023        0.18868
N         10.46430        5.71503        0.60168
N         12.37721        4.71747       -0.27434
H          4.31201        1.91692       -0.55416
H          4.60535        1.17204        1.01620
H          2.51956       -1.65978        0.45517
H          3.08395       -0.55404        1.73381
H          5.13386       -1.97239       -0.06144
H          4.41531       -2.81739        1.30623
H          7.03166       -0.65635        3.13287
H          5.30788        0.21495        2.28039
H          6.70827       -2.45318        2.01581
H          4.99443       -2.90213        3.65037
H          3.89732       -1.46654        3.54072
H          6.85063       -0.50655       -0.23708
H          8.14072       -0.99525        0.88593
H          7.59658        1.25704        2.14299
H          6.79135        1.74935        0.64564
H          8.94187        1.33318       -0.63002
H          9.72712        0.91574        0.90008
H          9.19950        3.23014        1.77710
H          8.47241        3.63661        0.20775
H         11.23373        2.61546        0.17843
H          9.56180        5.49676        1.03161
H         12.53758        4.20234       -1.13739
H         12.65285        5.69205       -0.36661
