26

O          4.12739       -1.78257        0.06779
C          4.93835       -1.24968       -0.89827
O          5.11237       -1.85796       -1.93296
C          5.58017        0.09292       -0.57731
C          5.09672        0.80734        0.69363
B          5.78199        2.25907        0.91941
S          4.65508        3.21294        2.17955
O          3.29542        3.20186        1.62587
O          4.84662        2.83207        3.57963
C          5.06566        5.12394        2.22336
C          5.30699        5.86287        0.87573
F          6.47187        5.49504        0.31460
F          4.30876        5.62708        0.00071
F          5.35865        7.20797        1.08777
F          3.96628        5.68661        2.80429
F          6.13162        5.34973        3.02461
S          7.60911        2.12394        1.49313
O          8.37421        1.36170        0.51730
O          8.18322        3.34064        2.03228
F          7.50752        1.10202        2.79116
H          4.09459       -1.14509        0.80836
H          5.42587        0.72721       -1.46313
H          6.66678       -0.08175       -0.53642
H          5.28029        0.18077        1.58576
H          4.00951        0.98391        0.62829
H          5.84769        2.95576       -0.06654
