24

N          0.55687       -0.24124       -0.24789
C          2.00159        0.04858       -0.14255
C          2.75081       -0.39891       -1.39545
C          4.25795       -0.09486       -1.34371
C          5.05424       -0.59732       -2.54502
Nb         7.24348       -0.19227       -2.63448
C          8.93550       -0.63799       -1.23644
F          9.23008       -2.00906       -1.14867
F         10.15632       -0.10178       -1.67377
F          8.83924       -0.23113        0.08416
Br         7.98428       -1.06709       -4.86667
H          0.09025       -0.03675        0.63759
H          0.42801       -1.24271       -0.40952
H          2.47772       -0.41940        0.74297
H          2.11423        1.13873       -0.01814
H          2.29701        0.08273       -2.27782
H          2.60987       -1.48776       -1.53049
H          4.67715       -0.53970       -0.42260
H          4.39422        0.99658       -1.24216
H          4.67279       -0.12649       -3.47393
H          4.92369       -1.69265       -2.64176
H          8.02514        1.26953       -2.04465
H          6.39200        1.34175       -2.76018
H          6.81827       -1.29931       -1.34161
