96

C          1.40494       -1.98200       -0.22264
C          2.77030       -1.30832       -0.05838
C          3.19965       -0.50551       -1.28993
C          4.55757        0.19217       -1.15211
C          4.94053        1.00680       -2.39671
C          6.27065        1.73515       -2.33659
As         6.79590        2.34129       -4.27691
C          6.50637        4.40558       -3.94345
C          7.43993        5.36963       -4.34490
C          7.11388        6.72982       -4.36978
C          5.82798        7.18115       -3.99822
C          4.89700        6.20786       -3.58074
C          5.23847        4.85131       -3.55251
Si         5.37108        8.98708       -4.17252
C          5.70143        9.54293       -5.97117
C          5.09813        8.60202       -7.02087
C          5.29446        9.06677       -8.44602
F          6.60834        9.22736       -8.77434
F          4.77174        8.18263       -9.34616
F          4.68566       10.26943       -8.69219
C          3.53734        9.26976       -3.78894
C          6.40899       10.10242       -3.04849
C          8.85543        2.39139       -3.84716
C          9.67252        1.85080       -4.84590
C         11.05658        1.76091       -4.69039
C         11.68764        2.22289       -3.51361
C         10.86125        2.77047       -2.51253
C          9.47005        2.84916       -2.67719
Si        13.54599        2.05418       -3.31749
C         14.43561        2.58181       -4.91807
C         14.21537        4.03724       -5.35643
C         14.93577        4.40521       -6.65988
C         14.74105        5.86540       -7.07960
C         15.47187        6.23964       -8.37299
C         15.29440        7.70634       -8.77700
C         16.03164        8.08723      -10.06486
C         15.85215        9.55736      -10.45163
C         14.17106        3.11001       -1.87248
C         14.02022        0.24679       -2.98718
H          1.11453       -2.54723        0.67550
H          1.40850       -2.68226       -1.07184
H          0.61805       -1.23697       -0.41717
H          3.53494       -2.07242        0.16289
H          2.74799       -0.64018        0.81982
H          2.42644        0.25176       -1.51316
H          3.22420       -1.17470       -2.16869
H          5.34086       -0.56077       -0.95277
H          4.54028        0.85429       -0.26775
H          4.13141        1.72845       -2.60498
H          4.95425        0.32650       -3.27193
H          7.08861        1.06117       -2.03845
H          6.24738        2.59794       -1.65319
H          7.22631        2.73555       -5.78122
H          6.97466        0.76929       -4.64848
H          5.24248        2.29250       -4.70603
H          8.43518        5.04850       -4.67069
H          7.87088        7.45072       -4.70213
H          3.88560        6.51073       -3.29006
H          4.48087        4.11413       -3.26279
H          6.79134        9.60586       -6.11864
H          5.30833       10.56462       -6.10130
H          4.01229        8.48303       -6.88580
H          5.53998        7.59760       -6.94398
H          2.88422        8.67935       -4.44738
H          3.27509       10.33047       -3.91580
H          3.30098        8.98734       -2.75304
H          7.48274        9.94308       -3.22220
H          6.20873        9.87688       -1.99127
H          6.19036       11.16739       -3.21827
H          9.19914        1.49680       -5.77134
H         11.65753        1.32808       -5.49877
H         11.30714        3.14635       -1.58582
H          8.86349        3.28416       -1.87642
H         14.10894        1.90098       -5.72431
H         15.51595        2.38749       -4.78707
H         14.55407        4.72199       -4.55911
H         13.13500        4.22455       -5.47421
H         14.58131        3.74094       -7.46789
H         16.01571        4.19793       -6.54932
H         15.08600        6.52617       -6.26433
H         13.66276        6.06962       -7.19738
H         15.11758        5.59033       -9.19306
H         16.54911        6.02199       -8.25891
H         15.64378        8.35542       -7.95430
H         14.21864        7.92442       -8.89644
H         15.67861        7.44326      -10.88810
H         17.10609        7.86504       -9.94636
H         14.79037        9.79902      -10.60933
H         16.39127        9.80330      -11.37770
H         16.22647       10.22425       -9.66018
H         13.92723        4.17256       -2.01197
H         15.26310        3.02164       -1.77156
H         13.72180        2.78794       -0.92209
H         13.67220       -0.40129       -3.80469
H         13.55426       -0.11558       -2.05973
H         15.10998        0.12196       -2.89475
