40

C          2.67222        0.95026       -1.62024
C          2.55830        0.36608       -0.20645
C          3.29804        1.20760        0.85671
C          2.85010        1.03107        2.33796
S          3.30366       -0.66678        3.03563
O          2.38532       -1.07079        4.09300
O          3.50061       -1.59408        1.91634
C          5.04939       -0.69915        3.92449
C          5.75697       -2.08382        3.68837
F          4.95477       -3.11820        4.00267
F          6.19212       -2.23063        2.42350
F          6.85336       -2.15959        4.49745
F          5.90462        0.24498        3.46693
F          4.89238       -0.58246        5.25574
C          3.47816        2.16754        3.26553
O          3.51654        3.30425        2.74275
O          3.79133        1.78498        4.41815
C          1.29686        1.07700        2.47160
C          0.68568        1.45430        3.84742
C          0.40873        2.96136        3.94978
C         -0.59827        0.65128        4.09174
C          4.82138        1.14863        0.66760
H          2.09787        0.34958       -2.34181
H          3.71288        0.97653       -1.97455
H          2.28495        1.98084       -1.65911
H          2.94360       -0.66286       -0.19480
H          1.49047        0.29600        0.04796
H          3.01268        2.26637        0.71297
H          0.87416        0.11454        2.14254
H          0.97388        1.82211        1.72460
H          1.41167        1.18566        4.62678
H         -0.35925        3.26299        3.21593
H          1.31537        3.54996        3.75836
H          0.03204        3.21990        4.95160
H         -1.35071        0.85502        3.31041
H         -1.04954        0.91598        5.06049
H         -0.39028       -0.42821        4.09503
H          5.20083        0.12149        0.76201
H          5.32674        1.78843        1.40045
H          5.09726        1.51537       -0.33127
