34

N          0.58146       -0.38804       -0.52017
C          2.04083       -0.49634       -0.21188
C          2.89385       -0.68794       -1.45288
Ga         4.86476       -1.05061       -1.02840
C          5.81825        0.49891       -0.09237
C          5.29778        0.81878        1.31275
C          6.17312        1.80059        2.09554
N          5.60607        2.10377        3.42961
C          5.88552       -1.55850       -2.74774
C          7.33501       -1.83248       -2.41923
S          8.34641       -2.34537       -3.89403
C          9.98549       -2.52271       -3.12591
H          0.03558       -0.53897        0.33424
H          0.34201       -1.16587       -1.14114
H          2.24673       -1.31942        0.50089
H          2.32481        0.43708        0.30364
H          2.77985        0.17293       -2.13308
H          2.54049       -1.58101       -2.00383
H          4.92855       -2.33480       -0.02500
H          5.78291        1.40524       -0.72385
H          6.88493        0.21423       -0.02467
H          5.19306       -0.10526        1.90766
H          4.27829        1.24448        1.24436
H          6.33192        2.70553        1.47350
H          7.16743        1.34764        2.25084
H          4.65128        2.45086        3.30941
H          6.12757        2.86461        3.86978
H          5.79578       -0.74889       -3.49026
H          5.40387       -2.45461       -3.17223
H          7.42885       -2.64193       -1.67718
H          7.83036       -0.93908       -2.00713
H         10.69465       -2.82276       -3.90898
H          9.97921       -3.29368       -2.34122
H         10.32525       -1.57138       -2.68952
