43

C          3.38022       -0.99702        2.38275
C          2.71751       -1.95544        1.38641
C          2.88265       -1.54750       -0.08492
In         4.96646       -1.52644       -1.02048
C          6.20012        0.22464       -0.24263
C          7.70813        0.04584       -0.43141
C          8.58778        1.23054        0.01313
C         10.08498        1.01675       -0.24124
C         10.96644        2.23009        0.07306
C         12.44984        1.99640       -0.22995
C          6.11866       -3.38309       -0.37123
C          5.28581       -4.63058       -0.07384
C          6.06067       -5.92152        0.24240
N          6.82924       -6.39206       -0.92812
H          3.22319       -1.31708        3.42630
H          2.96946        0.02055        2.28025
H          4.46307       -0.92749        2.20398
H          1.64447       -2.04003        1.66425
H          3.13600       -2.96469        1.54566
H          2.44416       -0.54359       -0.23460
H          2.28876       -2.22861       -0.71861
H          4.79583       -1.44995       -2.81079
H          5.97088        0.35784        0.83002
H          5.86379        1.14766       -0.74780
H          7.92990       -0.15427       -1.49653
H          8.04608       -0.85822        0.10781
H          8.41806        1.43020        1.08711
H          8.25377        2.14008       -0.51897
H         10.23023        0.73564       -1.30015
H         10.43632        0.15013        0.34767
H         10.84520        2.50828        1.13420
H         10.60559        3.09603       -0.50844
H         12.85204        1.16611        0.37058
H         13.05962        2.88784       -0.01846
H         12.59819        1.73433       -1.28892
H          6.69244       -3.10921        0.53321
H          6.86317       -3.60470       -1.15167
H          4.60691       -4.85654       -0.92087
H          4.61573       -4.44121        0.78241
H          5.34503       -6.68749        0.61532
H          6.77786       -5.72507        1.05866
H          6.21294       -6.39782       -1.74464
H          7.13392       -7.35661       -0.79001
