35

C          4.45010        0.99654       -3.76476
C          4.08247       -0.16963       -2.84471
C          4.66057       -0.00279       -1.43753
C          4.36710       -1.16551       -0.47917
C          4.82619       -2.55308       -1.13390
O          3.98544       -3.45495       -1.30412
O          6.06274       -2.51441       -1.39188
C          5.08287       -1.01829        0.87330
C          4.83950        0.27848        1.65289
C          5.48430        0.27931        3.04461
C          7.01349        0.27310        3.01456
N          7.54805        0.33415        4.37104
C          8.90506        0.44393        4.61527
N          9.87934        0.37820        3.77270
N          9.19007        0.66075        5.97914
Cl         2.53713       -1.14115       -0.12391
H          4.02297        0.86902       -4.77110
H          5.54233        1.08553       -3.87652
H          4.08102        1.95570       -3.36629
H          4.45663       -1.11346       -3.26893
H          2.98795       -0.26669       -2.77693
H          4.29810        0.94565       -1.00444
H          5.75944        0.05591       -1.50970
H          6.14990       -1.15122        0.63658
H          4.78756       -1.87549        1.50190
H          3.75420        0.42498        1.76562
H          5.21461        1.14621        1.08466
H          5.13343       -0.59624        3.61707
H          5.15212        1.17624        3.59987
H          7.37089        1.12838        2.40737
H          7.38199       -0.64356        2.52981
H          6.95729        0.82461        5.03744
H          9.53275        0.33663        2.81075
H          8.66847        0.04529        6.60028
H         10.19213        0.57522        6.13350
