42

C          0.65388        5.18838        2.13568
C          2.02283        5.43252        1.49402
C          2.86819        4.16160        1.36454
C          4.25754        4.37969        0.74252
C          5.09230        3.10105        0.63510
In         7.17312        3.26716       -0.14595
C          8.01380        1.14853        0.35788
C          8.52256        0.89455        1.78962
F          7.56922        1.22542        2.70402
F          8.86616       -0.40645        2.04016
F          9.62097        1.64582        2.05344
F          7.00391        0.19060        0.16288
F          9.06466        0.74244       -0.47494
C          8.34155        4.69211        1.15063
C          7.87601        5.07243        2.42468
C          8.59656        5.94651        3.24989
C          9.82606        6.46740        2.83150
C         10.30926        6.10228        1.57525
C          9.57321        5.23396        0.75003
C         11.64413        6.61003        1.10627
F         12.12444        7.63774        1.86788
F         12.60720        5.63773        1.12911
F         11.60379        7.06837       -0.18013
C          8.05712        6.38566        4.58262
F          7.02183        5.62444        5.02223
F          9.00950        6.35966        5.56694
F          7.59648        7.68052        4.55146
H          0.06113        6.11278        2.20493
H          0.76205        4.78472        3.15395
H          0.06882        4.45847        1.55531
H          2.57906        6.17908        2.08630
H          1.88659        5.88053        0.49461
H          2.31835        3.41566        0.76233
H          2.99430        3.70550        2.36322
H          4.79122        5.13806        1.34377
H          4.12973        4.83566       -0.25596
H          4.57114        2.36133        0.00545
H          5.18661        2.63334        1.63000
H          7.50526        3.57108       -1.85028
H          6.92812        4.67610        2.79614
H         10.39255        7.14245        3.47161
H          9.98425        4.97927       -0.23075
