33

N          1.69754        1.01216        1.99321
C          2.64712        1.60890        1.02719
C          4.08039        1.16749        1.32159
C          5.08887        1.72423        0.31566
Nb         5.28387        3.92377       -0.06017
C          4.06327        5.51132       -1.09669
F          2.74048        5.71863       -0.75158
F          4.64236        6.79751       -1.00009
F          4.02237        5.32829       -2.49742
C          7.19595        4.07228       -1.11820
C          7.86921        5.44677       -1.23999
C          8.20534        6.01542        0.14815
C          9.12616        5.40689       -2.12684
H          0.76143        1.38545        1.82331
H          1.95080        1.32712        2.93322
H          2.61463        2.71505        1.00881
H          2.35679        1.27555        0.01772
H          4.09075        0.06022        1.37097
H          4.34968        1.53370        2.32904
H          4.98801        1.18910       -0.64792
H          6.11714        1.53720        0.69620
H          3.92751        3.26934       -0.97249
H          4.83001        5.22603        1.05318
H          5.41068        3.63262        1.68854
H          6.95352        3.65990       -2.12025
H          7.88711        3.34886       -0.63704
H          7.15191        6.13847       -1.71456
H          8.89880        5.34621        0.68422
H          7.29971        6.12256        0.76415
H          8.68299        7.00538        0.07348
H          9.88496        4.73470       -1.69307
H          9.58097        6.40655       -2.23414
H          8.88697        5.03294       -3.13339
