57

C          0.71772        0.63257       -0.98890
C          2.17794        1.09016       -0.85644
C          3.17761        0.22770       -1.62966
Ga         5.09365        0.87887       -1.55025
C          5.99726        0.61447        0.25216
C          6.01835       -0.61287        0.94407
C          6.66132       -0.76528        2.17696
C          7.33609        0.31484        2.78608
C          7.33003        1.54535        2.09436
C          6.67407        1.68629        0.86793
Si         8.18812        0.12968        4.43882
C          9.93217       -0.64527        4.27177
C          9.95587       -2.02291        3.59543
C         11.32641       -2.67516        3.65067
C         11.44444       -4.14349        3.10220
C         11.09288       -4.46717        1.60139
C         11.91300       -3.83197        0.40429
C         13.46858       -4.07180        0.35693
C         14.12501       -3.77698       -1.04602
F         13.79071       -4.71361       -1.95023
F         13.76298       -2.56892       -1.50957
F         15.46723       -3.79611       -0.89841
F         14.07616       -3.26498        1.25926
F         13.75121       -5.36675        0.65980
F         11.38180       -4.38773       -0.72348
F         11.67873       -2.49958        0.37325
F         11.17912       -5.82076        1.47128
F          9.79832       -4.10875        1.38350
F         12.71166       -4.59809        3.32549
F         10.58972       -4.91835        3.83823
F         12.27336       -1.91790        3.00297
F         11.75101       -2.78430        4.96214
C          8.44580        1.80789        5.27337
C          7.18198       -0.98520        5.59557
F          5.04894        2.74247       -1.70350
H          0.02215        1.27742       -0.42498
H          0.59381       -0.39896       -0.62124
H          0.40168        0.64014       -2.04466
H          2.45221        1.10594        0.21293
H          2.26464        2.13582       -1.19530
H          2.88960        0.18512       -2.69525
H          3.14058       -0.81607       -1.26481
H          6.01336        0.32397       -2.74260
H          5.50847       -1.48392        0.51619
H          6.62363       -1.73995        2.67714
H          7.83475        2.41504        2.52857
H          6.67175        2.65952        0.36755
H         10.35913       -0.71606        5.28534
H         10.56815        0.05498        3.70813
H          9.64872       -1.93844        2.54363
H          9.25381       -2.71944        4.07840
H          9.08491        2.46518        4.66681
H          8.92577        1.68802        6.25588
H          7.48639        2.32268        5.42231
H          6.99969       -1.97796        5.15946
H          6.19918       -0.53505        5.79519
H          7.69495       -1.12900        6.55828
