63

C          1.29081        0.21545       -0.17968
C          2.67747        0.24097        0.47796
Ga         3.29807       -1.56137        1.15575
C          2.30801       -1.77025        3.01782
C          2.07807       -3.14900        3.68767
C          3.34937       -4.01387        3.97381
F          4.24799       -3.35892        4.73594
F          2.98853       -5.14281        4.64802
F          3.95147       -4.40253        2.83578
F          1.42823       -3.02679        4.90312
F          1.26980       -3.90829        2.88299
F          2.93003       -0.97969        3.99798
F          1.00537       -1.24581        2.91922
C          5.27726       -1.59326        1.56813
C          6.10750       -2.64541        1.13903
C          7.48011       -2.66856        1.40363
C          8.10422       -1.62314        2.11144
C          7.28189       -0.55905        2.53757
C          5.90968       -0.55113        2.27393
Si         9.92866       -1.65499        2.53663
C         10.18650       -2.11026        4.36804
C          9.46176       -1.20643        5.37591
C          9.71360       -1.57453        6.84329
C          8.99112       -0.65271        7.83054
C          9.25451       -0.98677        9.30214
C          8.55409       -0.03841       10.28038
C          8.83238       -0.34933       11.75491
C          8.13917        0.61656       12.71995
C         10.85576       -2.93611        1.49389
C         10.70213        0.04680        2.21995
H          0.98085        1.19692       -0.58483
H          0.51555       -0.09843        0.53514
H          1.25793       -0.50366       -1.01397
H          2.69087        0.95949        1.31439
H          3.43595        0.59471       -0.24092
H          2.89107       -2.79479        0.22522
H          5.66593       -3.48028        0.58540
H          8.07278       -3.51827        1.04948
H          7.71750        0.28140        3.08801
H          5.31379        0.29238        2.63524
H         11.27368       -2.10978        4.56981
H          9.85308       -3.15475        4.49850
H          8.37752       -1.23754        5.17967
H          9.76325       -0.15496        5.22104
H         10.80005       -1.55040        7.04571
H          9.39712       -2.61875        7.01439
H          7.90553       -0.69027        7.63467
H          9.29416        0.39214        7.63733
H         10.34306       -0.96597        9.49177
H          8.93357       -2.02396        9.50504
H          7.46492       -0.06793       10.10095
H          8.86447        0.99978       10.06449
H          9.92184       -0.32769       11.93073
H          8.51302       -1.38244       11.97447
H          8.46635        1.65352       12.54917
H          8.35482        0.36859       13.76925
H          7.04662        0.59287       12.59053
H         10.49348       -3.95488        1.69145
H         11.93094       -2.91167        1.72513
H         10.73314       -2.73700        0.41992
H         10.19337        0.83468        2.79277
H         10.62216        0.30984        1.15574
H         11.76608        0.05794        2.49986
