41

C          2.62410        0.16409        0.18989
C          1.12118        0.10899        0.06800
C          0.37327        1.24221       -0.26645
C         -1.02260        1.19204       -0.34913
C         -1.72951        0.00226       -0.10050
C         -0.97141       -1.14050        0.23645
C          0.41639       -1.08144        0.31592
C         -3.24635       -0.07380       -0.13198
S         -3.75222       -1.18737       -1.53786
O         -2.88370       -2.35339       -1.65725
O         -5.20089       -1.37596       -1.51515
C         -3.39569       -0.19758       -3.02096
C         -3.74208       -0.76688        1.29807
O         -4.04837        0.08723        2.15515
O         -3.69464       -2.00769        1.32378
C         -3.91167        1.30446       -0.28756
C         -5.44652        1.35475       -0.26607
C         -5.89494        2.79690        0.00434
C         -7.38760        3.00767       -0.12288
C         -7.85535        4.47059        0.15485
F         -7.52666        4.85524        1.41020
F         -7.26959        5.33597       -0.71103
F         -9.19388        4.59701        0.01962
F         -7.83326        2.71050       -1.39587
F         -8.09391        2.21041        0.74416
H          3.02570        1.09797       -0.22790
H          3.10286       -0.67632       -0.33523
H          2.94406        0.10797        1.24310
H          0.88714        2.18796       -0.46222
H         -1.55657        2.10847       -0.60031
H         -1.50520       -2.06518        0.45267
H          0.97035       -1.98536        0.58554
H         -2.34626        0.11868       -3.00012
H         -4.07470        0.65911       -3.08361
H         -3.56972       -0.88603       -3.85654
H         -3.54722        1.83510       -1.18516
H         -3.54977        1.86297        0.58938
H         -5.81781        0.69970        0.53054
H         -5.86964        0.99479       -1.21249
H         -5.41091        3.49640       -0.69636
H         -5.59902        3.09529        1.02166
