83

C          1.35004        5.03829       10.23326
C          2.87917        5.09865       10.20582
C          3.46057        5.06887        8.78894
C          4.98986        5.14173        8.74706
C          5.57032        5.08332        7.33085
C          7.09841        5.18021        7.28546
C          7.67653        5.09021        5.86796
C          9.20659        5.21211        5.80968
Si         9.94959        5.13373        4.05529
C          9.18286        6.45864        2.97170
C          9.54230        7.81457        3.11895
C          8.93341        8.81764        2.35930
C          7.92387        8.54763        1.40544
C          7.58601        7.18437        1.26376
C          8.18665        6.17132        2.01656
B          7.11952        9.68931        0.57146
C          8.06435       10.77041       -0.20409
C          7.47783       11.87939       -0.85763
C          8.22555       12.80563       -1.58894
C          9.61579       12.67339       -1.70660
C         10.22089       11.58617       -1.07755
C          9.46093       10.65882       -0.34595
C         11.71342       11.42237       -1.13881
F         12.30002       12.20338       -2.09525
F         12.32236       11.75600        0.04487
F         12.09236       10.13821       -1.40359
C          7.55555       13.93890       -2.31127
F          6.29181       14.18818       -1.87267
F          8.24662       15.11684       -2.19574
F          7.45094       13.70723       -3.66243
C          5.99801       10.44162        1.53743
C          6.54421       11.28952        2.69280
C          5.46299       12.00544        3.50953
C          6.02153       12.80532        4.68525
N          4.94767       13.46386        5.42249
C          5.18696       14.20215        6.56508
N          6.32371       14.53297        7.08039
N          4.00025       14.61342        7.20321
C         11.82164        5.38812        4.20875
C          9.63004        3.40845        3.33556
H          0.96032        5.05758       11.26115
H          0.98019        4.11967        9.75304
H          0.91017        5.89058        9.69390
H          3.29294        4.25508       10.78453
H          3.22134        6.01365       10.71841
H          3.04029        5.90725        8.20589
H          3.12449        4.14868        8.27829
H          5.41072        4.31523        9.34752
H          5.32261        6.07270        9.23928
H          5.13790        5.89817        6.72450
H          5.24985        4.14398        6.84562
H          7.53595        4.37998        7.90966
H          7.41751        6.13211        7.74570
H          7.22552        5.87805        5.24168
H          7.35991        4.13267        5.41773
H          9.67450        4.42443        6.42819
H          9.51573        6.17256        6.25909
H         10.31696        8.09852        3.83977
H          9.25953        9.85074        2.51393
H          6.81942        6.91891        0.52931
H          7.87517        5.13489        1.85110
H          6.48113        9.11823       -0.32626
H          6.39657       12.01472       -0.79591
H         10.20371       13.39565       -2.27041
H          9.97500        9.81717        0.12336
H          5.32187        9.67178        1.95356
H          5.34924       11.08374        0.91065
H          7.24657       12.04591        2.29756
H          7.13650       10.65086        3.37068
H          4.74654       11.25539        3.89344
H          4.88774       12.68098        2.85353
H          6.71800       13.57604        4.31509
H          6.60361       12.13429        5.34680
H          4.05808       12.97260        5.40488
H          7.09430       14.06615        6.59500
H          3.30214       14.98255        6.56089
H          4.22031       15.28286        7.93668
H         12.05784        6.38318        4.61230
H         12.30789        5.30696        3.22607
H         12.27309        4.63925        4.87669
H          8.55594        3.18935        3.25499
H         10.08214        2.63349        3.97251
H         10.06381        3.31546        2.32962
