22

N          1.84906       -0.57235        1.54502
As         2.88887        0.26430       -0.00803
C          3.91300        0.98194       -1.76858
F          3.12819        1.80219       -2.55847
F          5.08072        1.70079       -1.56523
F          4.28402       -0.05949       -2.59724
C          4.07466        1.31745        1.34010
C          5.20328        0.48654        1.94211
C          5.00237       -0.00621        3.37326
O          5.91647        0.02842        4.21293
N          3.76965       -0.50431        3.64606
H          1.53719       -1.48262        1.19213
H          0.99229       -0.01507        1.63506
H          3.93124       -0.96799        0.06307
H          1.89212        1.52247       -0.06997
H          1.99442       -0.52304       -1.06256
H          3.35431        1.67431        2.08808
H          4.45579        2.17488        0.77187
H          6.16922        1.00794        1.92572
H          5.33105       -0.42858        1.31403
H          3.00286       -0.57108        2.92453
H          3.63101       -0.86820        4.58213
