20

N          0.99812        0.28059       -0.13893
C          2.46240        0.09712       -0.05328
C          2.97673       -0.81328       -1.16258
C          4.49171       -1.02450       -1.11370
C          4.99891       -1.99500       -2.19013
N          4.70871       -1.48597       -3.50187
C          5.03251       -2.23806       -4.50890
F          6.45107       -2.63538       -4.66510
F          4.43872       -3.59005       -4.59666
F          4.73416       -1.69606       -5.74954
H          0.64670        0.72437        0.71162
H          0.55238       -0.63873       -0.18446
H          2.78734       -0.31271        0.92666
H          2.93027        1.09205       -0.14767
H          2.70678       -0.41101       -2.14982
H          2.47697       -1.79795       -1.07953
H          4.78505       -1.40364       -0.11670
H          4.99565       -0.05196       -1.25600
H          4.52498       -2.98825       -1.99860
H          6.08957       -2.14966       -2.01929
