59

C          1.68585       -0.54996       -0.82497
C          3.11480       -0.72922       -0.29941
C          3.38833        0.07122        0.98236
C          4.78953       -0.04636        1.54837
As         5.00996        1.29219        3.14852
C          4.48834       -0.16285        4.62303
C          4.96096       -1.47398        4.75173
C          4.52153       -2.31437        5.78502
C          3.58393       -1.86697        6.73599
C          3.10854       -0.54200        6.60381
C          3.55510        0.28035        5.56843
Si         3.00737       -2.93006        8.15966
C          3.54412       -2.12170        9.80736
C          5.03952       -1.78848        9.85979
C          5.48639       -1.17676       11.16828
F          4.84628       -0.00719       11.45169
F          5.26641       -2.00601       12.23640
F          6.82426       -0.90008       11.16973
C          1.11929       -3.07057        8.20947
C          3.75632       -4.66755        8.06582
C          7.08444        0.96437        3.26915
C          7.75115        2.10314        4.03236
C          7.73706        1.85066        5.54595
C          9.17939        2.40197        3.54738
H          1.50258       -1.13251       -1.74106
H          1.48126        0.50764       -1.05352
H          0.94757       -0.86763       -0.07218
H          3.83637       -0.42466       -1.07729
H          3.30726       -1.79931       -0.10949
H          2.65690       -0.23100        1.75464
H          3.17242        1.13945        0.78524
H          5.55069        0.27349        0.81860
H          5.01514       -1.07192        1.87860
H          5.10945        2.35011        4.37292
H          5.32153        2.49273        2.08472
H          3.42877        1.62079        3.08973
H          5.69251       -1.86321        4.03536
H          4.91732       -3.33380        5.84766
H          2.37722       -0.15024        7.32191
H          3.17306        1.30656        5.47878
H          3.27079       -2.78881       10.64111
H          2.95768       -1.19821        9.93734
H          5.30983       -1.07916        9.06330
H          5.66096       -2.68531        9.71412
H          0.65590       -2.07387        8.23645
H          0.77478       -3.62970        9.09229
H          0.74588       -3.58296        7.31156
H          4.85530       -4.64345        8.07784
H          3.44930       -5.17561        7.14052
H          3.42305       -5.28308        8.91449
H          7.39719        0.94667        2.21371
H          7.29717       -0.01579        3.72435
H          7.14424        3.01603        3.84857
H          8.35053        0.96847        5.79578
H          6.71342        1.66519        5.89820
H          8.14021        2.71215        6.10330
H          9.84175        1.53558        3.71082
H          9.61576        3.26381        4.08248
H          9.18905        2.63103        2.47112
