45

C          1.38415        0.67602       -3.04674
C          2.87929        0.34765       -3.07911
C          3.22253       -1.00763       -2.45190
C          4.72042       -1.35137       -2.46242
C          5.08646       -2.68267       -1.78978
Al         7.06232       -3.15109       -1.65216
C          8.17256       -1.55009       -1.03399
C          7.81224       -0.77033        0.24531
C          8.02665       -1.45308        1.59686
O          8.18381       -0.79597        2.63634
N          8.02692       -2.81319        1.60184
C          7.86365       -3.88946       -3.37832
C          7.71870       -3.04043       -4.64579
C          8.39846       -3.68167       -5.87468
C          8.24978       -2.89878       -7.16108
C          8.94789       -3.53530       -8.40215
F         10.28166       -3.65813       -8.19569
F          8.45196       -4.77120       -8.65473
F          8.77159       -2.78657       -9.51514
F          6.92361       -2.75040       -7.51373
F          8.77467       -1.62799       -7.04804
H          1.16800        1.65935       -3.49136
H          1.00513        0.68675       -2.01309
H          0.80109       -0.07617       -3.60046
H          3.44059        1.13887       -2.55270
H          3.23908        0.36738       -4.12234
H          2.66596       -1.80624       -2.97607
H          2.86170       -1.02709       -1.40730
H          5.26636       -0.52348       -1.97286
H          5.06990       -1.34574       -3.51182
H          4.55304       -3.50719       -2.30257
H          4.67971       -2.68179       -0.75962
H          7.22537       -4.37102       -0.52436
H          8.12453       -0.83001       -1.87383
H          9.23765       -1.84568       -0.98422
H          6.74093       -0.49373        0.23335
H          8.35340        0.18684        0.33966
H          7.78836       -3.37742        0.77083
H          8.06683       -3.26354        2.50914
H          7.42018       -4.88761       -3.55873
H          8.93806       -4.07829       -3.18704
H          8.15164       -2.03898       -4.49045
H          6.65339       -2.88121       -4.87721
H          7.98249       -4.68638       -6.04770
H          9.47503       -3.80753       -5.68183
