36

N          4.76817        1.08575       -0.55507
C          4.55422        0.14608       -1.66760
C          5.27010       -1.18861       -1.41216
C          4.74814       -1.97733       -0.20904
Ta         5.69432       -3.65034        0.75770
C          3.85650       -4.94044        0.97604
C          3.75678       -6.35728        1.59747
C          4.31643       -6.50800        3.04698
F          3.69770       -5.68699        3.91734
F          4.11580       -7.78477        3.47934
F          5.64175       -6.27377        3.08944
F          2.44484       -6.78576        1.65076
F          4.43535       -7.25798        0.82784
F          2.83184       -4.19324        1.60206
F          3.34892       -5.11580       -0.34022
C          7.86709       -3.87189        0.11424
C          8.36297       -4.57753       -1.19062
C          7.73424       -4.08729       -2.53408
F          8.09892       -2.81949       -2.82706
F          8.15252       -4.87463       -3.55769
F          6.38469       -4.13903       -2.50620
F          9.72727       -4.42014       -1.35679
F          8.13320       -5.92002       -1.11429
F          8.36146       -2.54474       -0.04375
F          8.66655       -4.46890        1.08947
H          4.31457        1.97963       -0.74668
H          5.76712        1.27961       -0.45623
H          4.89292        0.54403       -2.64760
H          3.46896       -0.03202       -1.74897
H          6.34887       -0.98121       -1.29805
H          5.17835       -1.79690       -2.32479
H          3.69688       -2.28510       -0.37314
H          4.73508       -1.32300        0.69462
H          5.18273       -3.68144        2.43851
H          5.92749       -5.22124       -0.02170
H          6.81477       -2.99541        1.95301
