23

Br         1.33473       -1.39366       -0.35951
B          3.21851       -0.76735        0.21747
S          2.81683        0.45005        1.71037
O          2.38510        1.79398        1.29868
O          2.10653       -0.19691        2.81939
C          4.53798        0.80629        2.51799
F          5.19551       -0.32922        2.86679
F          5.36305        1.51757        1.70282
F          4.35936        1.53722        3.64531
C          4.02549       -0.02572       -0.97441
C          5.52688       -0.37183       -1.09107
C          5.73812       -1.82998       -1.51888
C          6.24364        0.58017       -2.05934
H          3.76534       -1.69453        0.77246
H          3.91131        1.06831       -0.88536
H          3.54043       -0.28634       -1.93199
H          5.99350       -0.24655       -0.09898
H          5.31490       -2.00296       -2.52271
H          5.24128       -2.52122       -0.82455
H          6.80885       -2.08815       -1.55591
H          5.80901        0.50300       -3.07001
H          7.31925        0.35114       -2.13907
H          6.14101        1.62572       -1.73315
