47

C          7.98013        3.10801        1.66325
C          7.10432        1.90927        1.28806
C          7.78976        0.92270        0.33680
C          6.92787       -0.29113       -0.02525
C          7.59392       -1.27873       -0.99243
C          6.72953       -2.50036       -1.33442
B          7.35600       -3.49410       -2.49409
C          6.24871       -4.64407       -2.89169
C          4.94699       -4.23667       -3.67545
C          5.13223       -3.45002       -5.02574
C          3.89217       -3.51553       -5.99580
F          2.74183       -3.19795       -5.36554
F          4.06947       -2.62055       -7.00198
F          3.75024       -4.72945       -6.56271
F          5.33376       -2.12951       -4.77058
F          6.18447       -3.92746       -5.74144
F          4.21687       -5.36962       -3.98792
F          4.13642       -3.46729       -2.88512
F          6.77273       -5.68461       -3.67850
F          5.69524       -5.31360       -1.77194
C          8.86817       -4.06721       -2.09305
C          9.03718       -4.85479       -0.76953
C          8.63596       -6.33665       -0.78745
C          9.64166       -4.74500       -3.23914
H          7.46068        3.80012        2.34286
H          8.27508        3.67773        0.76850
H          8.90563        2.78124        2.16194
H          6.16902        2.26700        0.82415
H          6.79996        1.37489        2.20444
H          8.73474        0.57630        0.79342
H          8.08037        1.45365       -0.58792
H          5.97701        0.05767       -0.46797
H          6.64790       -0.82588        0.90090
H          8.55612       -1.60211       -0.55610
H          7.85515       -0.74573       -1.92565
H          5.74057       -2.12162       -1.64790
H          6.53373       -3.05995       -0.39817
H          7.51558       -2.84056       -3.53229
H          9.41119       -3.11844       -1.91222
H          8.46564       -4.34409        0.02453
H         10.09999       -4.80153       -0.45590
H          7.58044       -6.46896       -1.05347
H          8.79540       -6.79534        0.20201
H          9.23596       -6.90747       -1.51209
H          9.20320       -5.70862       -3.53306
H         10.69943       -4.93188       -2.96860
H          9.63248       -4.10586       -4.13507
