31

F          2.04322       -2.01493        0.25622
In         2.73992       -0.23250       -0.44162
S          3.72589        1.02675        1.81171
O          3.75307        2.48691        1.57226
O          3.14818        0.56472        3.08900
C          5.64885        0.55529        2.12701
C          6.68382        1.38940        1.33063
C          8.15718        0.84666        1.29626
F          8.63000        0.64033        2.54424
F          8.24988       -0.30766        0.60844
F          8.96666        1.75290        0.69154
F          6.28339        1.47098        0.02531
F          6.74713        2.64376        1.85259
F          5.91717        0.67722        3.45398
F          5.79106       -0.76762        1.78572
C          4.37456       -0.82437       -1.78855
C          5.00233       -2.16741       -1.40337
C          5.98461       -2.71227       -2.45098
C          6.61175       -4.04397       -2.04250
N          7.52654       -4.54654       -3.08646
H          1.39232        0.85883       -0.62217
H          5.12809       -0.02538       -1.83408
H          3.91440       -0.88631       -2.78960
H          4.20929       -2.91240       -1.22575
H          5.52953       -2.06600       -0.44125
H          6.78730       -1.98063       -2.64104
H          5.45212       -2.84451       -3.41195
H          5.80122       -4.75685       -1.78962
H          7.20231       -3.90032       -1.12310
H          7.00053       -4.70052       -3.94941
H          7.89972       -5.45841       -2.81686
