29

O          2.56825       -2.06354       -2.91748
C          2.20671       -1.61810       -1.65016
O          1.67876       -2.40982       -0.89778
C          2.51753       -0.18824       -1.37697
Al         4.43544        0.46090       -1.48183
S          5.69454       -0.22309        0.54978
O          5.15981       -1.36979        1.30344
O          7.14249       -0.27294        0.19050
C          5.75512        1.22582        1.86591
C          4.42696        1.48253        2.62406
F          4.13594        0.47841        3.46682
F          4.49830        2.62937        3.35579
F          3.40712        1.62271        1.74555
F          6.71703        0.92452        2.77702
F          6.10698        2.37460        1.22496
C          5.69090       -0.40237       -2.77883
C          6.09101       -1.88676       -2.52452
C          7.56752       -2.12336       -2.80202
O          8.00163       -2.70889       -3.77780
O          8.41947       -1.60236       -1.88533
H          3.10935       -1.37174       -3.33830
H          2.07375        0.10259       -0.41666
H          2.05598        0.43743       -2.16326
H          4.48415        2.06772       -1.39659
H          6.58435        0.23973       -2.68912
H          5.37949       -0.28524       -3.83099
H          5.51659       -2.56195       -3.16956
H          5.88780       -2.19492       -1.48553
H          7.91965       -1.15686       -1.14965
