21

C          1.22218       -0.12513        0.51485
C          2.68829       -0.09655        0.07303
C          2.94719       -0.86329       -1.22789
C          4.40779       -0.84133       -1.68387
C          4.64035       -1.61451       -2.99480
N          5.99867       -1.49961       -3.50733
S          6.99645       -2.61181       -3.11028
O          6.46295       -3.96213       -2.89603
O          8.25922       -2.49041       -3.82362
F          7.48778       -2.23564       -1.50243
H          1.06344        0.42572        1.45422
H          0.87765       -1.15913        0.67170
H          0.56941        0.32367       -0.25027
H          3.32322       -0.51720        0.87105
H          3.01583        0.94995       -0.05224
H          2.30545       -0.44444       -2.02596
H          2.61985       -1.91110       -1.09834
H          5.05720       -1.26998       -0.90374
H          4.74332        0.19997       -1.82894
H          3.96569       -1.19249       -3.76562
H          4.33206       -2.66936       -2.84846
