21

N          0.79129       -0.25754        0.08544
C          2.25331       -0.00364       -0.01743
C          2.63835        1.39543        0.58595
O          1.99678        1.71717        1.62903
O          3.54400        2.03938       -0.01369
C          2.97627       -1.16918        0.68422
C          4.51496       -1.22140        0.56459
C          5.23125       -0.28417        1.54841
C          5.00931       -2.66593        0.74536
H          0.33729        0.35614       -0.59769
H          0.55176        0.18345        0.98766
H          2.53777       -0.00680       -1.08351
H          2.54898       -2.09658        0.26434
H          2.69330       -1.15671        1.75337
H          4.78133       -0.89427       -0.45705
H          4.96975       -0.54325        2.58806
H          4.95041        0.76168        1.37061
H          6.32563       -0.37176        1.44533
H          4.74246       -3.04794        1.74538
H          6.10515       -2.73332        0.64841
H          4.55833       -3.34227        0.00261
