40

N          8.68131        0.71246       -5.34268
C          7.37842        0.29978       -4.99647
N          6.39787        0.10516       -5.82505
N          7.20223        0.18600       -3.64228
C          6.00994       -0.39958       -3.04512
C          6.36091       -1.15939       -1.75490
C          6.79101       -2.62473       -1.94077
C          7.93389       -2.89219       -2.92766
In         9.96003       -1.97220       -2.66557
C         10.96970       -2.75757       -0.77773
O         10.17547       -3.90391       -0.26510
C         10.66812       -4.56323        0.77508
F         10.84310       -3.78856        1.90318
F          9.81050       -5.55887        1.11425
F         11.89100       -5.14699        0.54940
C         11.11280       -2.67772       -4.52334
C         10.63124       -3.93466       -5.26394
C         10.97303       -5.27684       -4.62917
O         10.96494       -6.33561       -5.22782
O         11.29866       -5.24477       -3.31045
H          8.95237        0.40322       -6.27101
H          9.39404        0.47316       -4.64746
H          6.71721        0.26361       -6.78481
H          8.05795        0.11626       -3.09124
H          5.53568       -1.06619       -3.78387
H          5.27578        0.39640       -2.82653
H          5.47989       -1.13709       -1.09219
H          7.15132       -0.60087       -1.22075
H          5.88940       -3.19068       -2.25341
H          7.06110       -3.02457       -0.94901
H          7.61644       -2.63150       -3.95076
H          8.13123       -3.97650       -2.94101
H         10.03089       -0.17150       -2.68050
H         11.00582       -1.99931        0.01812
H         11.99598       -3.11714       -0.95241
H         12.20362       -2.72243       -4.36706
H         10.94968       -1.81151       -5.18476
H         11.01502       -4.00923       -6.29628
H          9.53134       -3.93067       -5.36473
H         11.23777       -4.30653       -3.01889
