35

N          1.48532       -1.96784       -0.10632
C          2.89868       -1.70443        0.27121
C          3.00190       -0.53452        1.23900
In         5.05941       -0.04244        1.87722
S          6.21954        0.57663       -0.51303
O          5.17484        0.95458       -1.49312
O          7.40147        1.45916       -0.40513
C          6.98742       -1.00506       -1.34488
F          6.08441       -2.02223       -1.40058
F          7.38892       -0.74042       -2.60906
F          8.06342       -1.45807       -0.65289
C          6.23396       -1.80305        2.58378
C          5.58324       -2.98848        2.97320
C          6.29442       -4.09531        3.45599
C          7.68837       -4.05297        3.56086
C          8.35124       -2.88666        3.17883
C          7.63293       -1.77953        2.69891
C          9.85346       -2.81377        3.25403
F         10.39607       -3.82944        3.98996
F         10.43714       -2.87831        2.02184
F         10.28451       -1.65038        3.82097
C          5.57728       -5.33296        3.92051
F          4.30281       -5.41687        3.45770
F          6.21354       -6.48085        3.53551
F          5.49513       -5.39505        5.28998
H          1.45520       -2.69813       -0.82332
H          1.11370       -1.12667       -0.55536
H          3.53830       -1.50884       -0.60790
H          3.27774       -2.62871        0.73786
H          2.38325       -0.71891        2.13207
H          2.61823        0.38238        0.76282
H          5.42735        1.44187        2.72948
H          4.49610       -3.06485        2.89995
H          8.24489       -4.91184        3.93323
H          8.19026       -0.88567        2.40816
