59

N          2.12170       -0.89232        0.75025
C          2.63789       -1.09707       -0.61528
C          3.61882        0.00477       -1.00508
C          4.22518       -0.19867       -2.40815
C          5.09906        0.93752       -2.89998
C          4.45008        2.12760       -3.35934
C          5.10838        3.39619       -3.48234
C          4.44928        4.53828       -3.91463
C          3.08189        4.53546       -4.24185
C          2.40206        3.32198       -4.07268
C          3.04373        2.16623       -3.64059
C          0.91722        3.29468       -4.29251
F          0.21734        3.69211       -3.17710
F          0.51419        4.13071       -5.29671
F          0.43694        2.05618       -4.60754
C          5.22560        5.81346       -4.08088
F          6.32747        5.88588       -3.28436
F          5.67918        5.98061       -5.36881
F          4.47719        6.92714       -3.80972
C          6.51809        0.76095       -2.84498
C          7.12316       -0.20327       -1.97145
C          8.48994       -0.40416       -1.90707
C          9.37424        0.32241       -2.72801
C          8.81068        1.24596       -3.63913
C          7.44731        1.45440       -3.69254
C         10.84013        0.14046       -2.63648
C         11.68460        1.32206       -2.01991
C         11.32153        1.87531       -0.58664
C         11.40463        0.97248        0.70669
C         12.75727        0.28196        1.15159
C         14.02582        1.17292        1.42260
F         13.74246        2.19171        2.25608
F         14.96517        0.39593        2.01098
F         14.54635        1.66486        0.28971
F         12.47057       -0.33455        2.33698
F         13.10753       -0.66948        0.25602
F         11.02834        1.78263        1.74006
F         10.49439       -0.02637        0.61107
F         12.16140        2.93584       -0.35876
F         10.05447        2.35200       -0.61420
F         13.01276        0.98092       -1.99524
F         11.56380        2.40524       -2.84289
F         11.18361       -0.98274       -1.90950
F         11.42539       -0.02166       -3.89906
H          1.40150       -1.58355        0.96610
H          1.66532        0.02074        0.80631
H          1.83937       -1.14675       -1.38467
H          3.15218       -2.07316       -0.63374
H          4.42271        0.06320       -0.25446
H          3.10108        0.97954       -0.97417
H          3.40039       -0.37768       -3.12177
H          4.80165       -1.13655       -2.41596
H          6.15059        3.48335       -3.18546
H          2.57290        5.43377       -4.58102
H          2.44542        1.26468       -3.53093
H          6.49494       -0.78382       -1.29598
H          8.88633       -1.13393       -1.20146
H          9.45576        1.78156       -4.33689
H          7.06471        2.12766       -4.45842
