41

C          2.18968        2.43830       -1.40149
S          3.87254        1.84800       -1.07513
C          3.60842        1.18071        0.60538
C          4.90708        0.74318        1.30424
C          5.80749        1.81823        1.90813
S          5.20876        2.71483        3.22892
O          3.91497        2.13802        3.59619
O          6.17339        3.04799        4.26166
C          4.72927        4.46038        2.58997
C          3.79373        5.34113        3.49252
C          4.23751        5.64408        4.96533
F          5.49240        6.12195        5.01577
F          3.40873        6.59966        5.47093
F          4.13614        4.56403        5.74954
F          3.67463        6.56323        2.87356
F          2.55381        4.78854        3.54870
F          5.86311        5.17211        2.35793
F          4.05911        4.33090        1.40507
S          7.46467        1.81810        1.51559
O          8.28618        2.58190        2.43663
O          7.87328        0.48209        1.08878
C          7.64251        2.80938       -0.12943
C          9.07462        3.28615       -0.56344
C         10.23670        2.24718       -0.80300
C         10.06150        1.13892       -1.90403
F          9.72024        1.68076       -3.09227
F         11.25714        0.51462       -2.06232
F          9.15610        0.21834       -1.56617
F         11.31803        2.99208       -1.20177
F         10.55577        1.63340        0.35692
F          8.92741        3.97352       -1.74619
F          9.54813        4.16208        0.35759
F          7.13368        2.06950       -1.16008
F          6.90866        3.95059       -0.02910
H          2.19070        2.87378       -2.40918
H          1.89894        3.21442       -0.67967
H          1.45855        1.61705       -1.37227
H          2.94797        0.30267        0.52000
H          3.08707        1.93771        1.20475
H          5.52431        0.15237        0.61213
H          4.60402        0.04828        2.10337
