56

C          7.93193        1.49419        4.14424
C          7.13467        0.95937        2.95128
C          7.69572       -0.34856        2.38483
C          6.86726       -0.95135        1.24508
C          7.43260       -2.28013        0.71383
C          6.56829       -2.98717       -0.33131
Ta         7.09745       -5.01116       -1.02951
C          5.77038       -6.77036       -0.99862
C          4.32999       -6.64510       -0.49144
C          4.20439       -6.25965        0.98729
C          5.82152       -7.46448       -2.36561
C          9.19207       -5.78543       -1.12126
C          9.74096       -6.74159       -0.04228
C          9.37573       -8.21205       -0.26845
C          9.92846       -9.13128        0.81983
N          9.50050      -10.50945        0.61018
C          9.89735      -11.54328        1.42824
N         10.59947      -11.48118        2.51186
N          9.45698      -12.80228        0.97052
H          7.51114        2.43381        4.53254
H          8.98005        1.68660        3.86800
H          7.94057        0.76615        4.96988
H          7.10667        1.72080        2.15298
H          6.08522        0.80038        3.25323
H          7.77143       -1.09018        3.20041
H          8.73139       -0.17959        2.03813
H          6.78647       -0.22342        0.41768
H          5.83470       -1.12144        1.60046
H          7.59014       -2.96527        1.56462
H          8.43835       -2.08575        0.29598
H          6.39945       -2.33611       -1.20546
H          5.56203       -3.19965        0.09800
H          5.83189       -4.58897       -2.27529
H          7.85231       -4.21148       -2.47254
H          7.29669       -5.06438        0.82036
H          6.33000       -7.40057       -0.26469
H          3.79337       -7.60618       -0.64768
H          3.80080       -5.90245       -1.11409
H          4.70163       -7.00345        1.62951
H          3.15003       -6.19656        1.29874
H          4.68396       -5.29320        1.19659
H          5.23354       -6.89863       -3.10348
H          5.41426       -8.49568       -2.32583
H          6.84677       -7.54438       -2.76673
H          9.67741       -4.79334       -0.99169
H          9.52009       -6.11850       -2.12274
H          9.36047       -6.43405        0.94614
H         10.84747       -6.67652        0.01726
H          9.76365       -8.53970       -1.25111
H          8.28000       -8.32295       -0.30860
H          9.56476       -8.79594        1.80558
H         11.03419       -9.06245        0.84276
H          9.28313      -10.75936       -0.34974
H         10.95314      -10.53285        2.66196
H          8.47918      -12.80748        0.68648
H          9.63386      -13.50343        1.68596
