68

N          1.26349       -1.96932       -0.29324
C          2.50979       -1.39692        0.18658
As         2.59464        0.65601       -0.16079
C          2.42631        2.68058       -0.51145
C          1.90927        3.49661        0.49888
C          1.72425        4.86602        0.29285
C          2.06425        5.46937       -0.93919
C          2.58532        4.63615       -1.94978
C          2.75556        3.26188       -1.73726
Si         1.83999        7.31360       -1.18006
C          2.64241        8.24070        0.28433
C          4.10265        7.85073        0.53949
C          4.73519        8.58588        1.69946
F          4.08182        8.37203        2.87759
F          6.03142        8.20533        1.89692
F          4.75637        9.94204        1.51051
C          2.64756        7.89338       -2.79130
C          0.01320        7.81186       -1.19539
C          4.61979        0.63080       -0.75697
C          5.00259        0.04530       -1.96950
C          6.34323       -0.04823       -2.34556
C          7.33833        0.45947       -1.49204
C          6.97372        1.03968       -0.26632
C          5.62441        1.11361        0.08706
C          8.77666        0.37955       -1.90323
C          9.25462        1.36048       -3.04339
C          9.08219        2.91692       -2.86460
C          9.85721        3.71059       -1.73259
C         11.42864        3.62004       -1.69366
C         12.11923        4.74992       -0.83821
F         11.57912        4.83113        0.39078
F         13.42912        4.44503       -0.70938
F         12.02872        5.94999       -1.43769
F         11.79869        2.43479       -1.15338
F         11.93857        3.71530       -2.95003
F          9.53261        5.02318       -1.93432
F          9.37964        3.34216       -0.52100
F          9.45226        3.48013       -4.05371
F          7.76985        3.18978       -2.66528
F         10.57807        1.13140       -3.30648
F          8.55578        1.05688       -4.17530
F          9.63177        0.58102       -0.84282
F          9.07948       -0.87310       -2.41541
H          1.23051       -1.85566       -1.31198
H          0.49615       -1.37947        0.05773
H          3.36613       -1.88649       -0.29892
H          2.58937       -1.50635        1.28000
H          2.18113        0.36433       -1.72728
H          1.01865        0.67700        0.30563
H          3.09839        1.01488        1.35072
H          1.64614        3.04236        1.46187
H          1.31043        5.47582        1.10459
H          2.86709        5.06416       -2.91702
H          3.15237        2.63145       -2.54054
H          2.04459        8.03229        1.18599
H          2.56263        9.32461        0.10179
H          4.73679        8.05436       -0.33644
H          4.18905        6.77543        0.75527
H          3.71865        7.64891       -2.82520
H          2.54430        8.98255       -2.90677
H          2.17465        7.41962       -3.66329
H         -0.48609        7.49813       -0.26742
H         -0.51339        7.33190       -2.03278
H         -0.10662        8.90130       -1.29554
H          4.22528       -0.34653       -2.63650
H          6.62408       -0.51821       -3.28993
H          7.74351        1.42426        0.40395
H          5.33889        1.55530        1.04926
