27

C          0.86896        0.01242       -0.09666
C          2.40034       -0.02581       -0.07711
C          2.97462       -1.30643        0.53459
C          4.50985       -1.36729        0.56190
N          4.99262       -2.55881        1.13174
C          6.39884       -2.57165        1.13671
C          6.97339       -3.85655        1.75386
C          8.50282       -3.91734        1.78617
C          9.05443       -5.20578        2.40495
H          0.47969        0.94284       -0.54144
H          0.45896       -0.06684        0.92292
H          0.45998       -0.83101       -0.67556
H          2.78130        0.84628        0.48276
H          2.78262        0.08766       -1.10674
H          2.60638       -2.18668       -0.02232
H          2.60828       -1.42510        1.57012
H          4.87062       -0.42015        1.09554
H          4.86850       -1.18939       -0.51126
H          6.86740       -1.69282        1.70242
H          6.86623       -2.46437        0.09657
H          6.57506       -4.71739        1.18746
H          6.57170       -3.95326        2.77856
H          8.88867       -3.04774        2.34657
H          8.89172       -3.80918        0.75844
H          8.70883       -5.32442        3.44433
H         10.15645       -5.22619        2.41490
H          8.70923       -6.09089        1.84700
