53

Br         0.76421        0.51703        0.36057
P          3.34215       -0.27260        0.50930
C          3.66566       -0.25385       -1.49381
F          2.78510        0.36132       -2.33699
F          4.90344        0.27987       -1.80397
F          3.72451       -1.56548       -1.91772
C          3.86412        1.54559        0.68975
C          4.75629        1.81867        1.73219
C          5.19350        3.12033        1.98180
C          4.74754        4.19976        1.19354
C          3.85082        3.90964        0.14779
C          3.41528        2.60590       -0.10179
Si         5.24991        5.94862        1.64370
C          4.52333        6.35400        3.35362
C          2.99946        6.17908        3.44169
C          2.42242        6.43661        4.83854
C          0.90027        6.28041        4.91162
C          0.31835        6.57336        6.29813
C         -1.20698        6.45016        6.36975
C         -1.78659        6.76821        7.75252
C         -3.31255        6.65717        7.81688
C          7.13490        6.11119        1.74266
C          4.60415        7.19470        0.37323
H          2.72337       -1.55315        0.28947
H          3.09887       -0.33313        1.94486
H          4.69265       -0.77934        0.62002
H          5.10295        0.99698        2.36774
H          5.88901        3.29493        2.80967
H          3.46640        4.71631       -0.48204
H          2.69323        2.41495       -0.89593
H          4.81162        7.38291        3.63492
H          5.01616        5.68984        4.08585
H          2.73031        5.15916        3.12025
H          2.50469        6.85665        2.72366
H          2.70278        7.45383        5.16833
H          2.89723        5.74524        5.55746
H          0.62328        5.25772        4.60333
H          0.43098        6.95315        4.17167
H          0.61503        7.59154        6.60928
H          0.77385        5.88967        7.03662
H         -1.50599        5.42945        6.07367
H         -1.66206        7.12360        5.62153
H         -1.47867        7.78608        8.04846
H         -1.33669        6.09033        8.49806
H         -3.79251        7.34954        7.10856
H         -3.69504        6.89099        8.82090
H         -3.64954        5.64166        7.56026
H          7.55631        5.38734        2.45474
H          7.43125        7.11949        2.06812
H          7.59220        5.91747        0.76207
H          3.50854        7.16670        0.29609
H          5.01608        6.98989       -0.62502
H          4.89684        8.21584        0.65851
