31

F          4.53497       -0.00036       -0.92685
Sb         2.68909       -0.56000       -0.19030
C          1.95828        1.22968       -1.58995
C          0.44841        1.53482       -1.64161
C         -0.06438        2.70617       -2.54790
F          0.23685        2.50284       -3.84747
F         -1.42154        2.81564       -2.45971
F          0.45729        3.89353       -2.17394
F         -0.21514        0.41341       -2.07312
F          0.01218        1.82903       -0.37359
F          2.58936        2.40005       -1.19646
F          2.36003        0.97976       -2.89316
C          3.64666       -2.14979        1.04823
C          5.16892       -2.12039        0.95742
C          5.93427       -3.03611        1.93900
C          5.94106       -4.51045        1.58839
C          6.82616       -5.38562        2.53179
F          8.12199       -4.98942        2.48982
F          6.40525       -5.28663        3.81692
F          6.78378       -6.69045        2.18375
F          4.68492       -5.07136        1.63286
F          6.42896       -4.72476        0.31720
H          2.97930        0.68673        1.01834
H          1.05697       -0.95231        0.37656
H          2.59461       -1.55309       -1.63578
H          3.22316       -3.10748        0.71368
H          3.30330       -1.96263        2.07934
H          5.52128       -1.09586        1.14992
H          5.49472       -2.33328       -0.07086
H          5.52523       -2.94255        2.95701
H          6.99187       -2.72944        1.98385
