33

C          1.56219       -2.59524        0.12083
C          2.97800       -2.26770       -0.38048
C          3.04528       -1.01416       -1.26229
In         5.08928       -0.41245       -1.92173
C          6.06969        0.20521        0.14003
C          7.41803       -0.35425        0.66344
C          8.68786        0.10305       -0.13159
C         10.01709       -0.67285        0.19483
F         10.31718       -0.62137        1.50878
F          9.95560       -1.96263       -0.18153
F         11.03856       -0.09339       -0.48493
F          8.48076       -0.04280       -1.47016
F          8.94399        1.41589        0.12444
F          7.65306       -0.01423        1.98199
F          7.36344       -1.72621        0.61891
F          6.18760        1.60188        0.23658
F          5.17054       -0.14278        1.16405
C          6.24400       -2.17508       -2.76346
O          5.39371       -3.39908       -2.72771
C          5.84448       -4.46181       -3.37166
F          7.08261       -4.90201       -2.96351
F          4.97951       -5.49615       -3.18547
F          5.95966       -4.28959       -4.73668
H          1.54560       -3.50286        0.74763
H          0.87104       -2.75757       -0.72163
H          1.15705       -1.76610        0.72255
H          3.37083       -3.13495       -0.93457
H          3.63828       -2.14562        0.49320
H          2.62233       -0.15129       -0.72042
H          2.42232       -1.15209       -2.16253
H          5.28455        0.99699       -2.97123
H          7.15817       -2.40480       -2.19872
H          6.51751       -1.99622       -3.81362
