29

C          2.90939        0.41390       -2.23174
C          1.95441       -0.54756       -1.50222
C          2.69679       -1.36402       -0.43519
In         1.58846       -3.02422        0.51167
S          1.01544       -2.34382        3.11413
O         -0.33316       -2.75540        3.56448
O          2.15484       -2.69355        3.99451
C          0.93589       -0.41500        3.32863
F          2.10104        0.17469        2.94494
F         -0.05573        0.12365        2.56916
F          0.70376       -0.07012        4.61552
C          3.04137       -4.61284        1.24646
C          3.28186       -5.61718        0.20147
O          4.19537       -5.63514       -0.60763
O          2.32660       -6.63146        0.11147
C          0.77226        0.22748       -0.90823
H          3.74798       -0.13145       -2.68888
H          3.33339        1.14452       -1.52393
H          2.39310        0.97632       -3.02710
H          1.55146       -1.24453       -2.26018
H          3.06149       -0.70155        0.36670
H          3.58528       -1.84931       -0.87113
H          0.04807       -3.65220       -0.04732
H          2.59205       -5.01750        2.16182
H          3.95838       -4.06630        1.48537
H          1.63114       -6.44181        0.76468
H          1.12010        0.93098       -0.13538
H          0.04616       -0.44738       -0.43234
H          0.24118        0.80785       -1.67852
