57

C          4.08771        3.33874        3.25238
C          3.89249        1.89953        3.73757
C          4.79885        0.88812        3.02910
C          4.61404       -0.55464        3.51395
C          5.50787       -1.55713        2.78870
Nb         7.67153       -1.51189        2.51278
C          8.23796       -0.40016        0.68925
C          7.79463        0.89529        0.33520
C          8.15865        1.49981       -0.87083
C          9.00234        0.84236       -1.77855
C          9.45524       -0.43486       -1.45159
C          9.06754       -1.04923       -0.24819
C         10.33368       -1.19250       -2.40768
F         10.77906       -0.42903       -3.44881
F         11.44437       -1.70511       -1.80089
F          9.68667       -2.26239       -2.96958
C          7.69412        2.88648       -1.21782
F          6.72261        3.35315       -0.39057
F          8.71484        3.80317       -1.17188
F          7.19123        2.96252       -2.49193
C          9.20566       -2.33966        3.96319
C          8.65803       -3.50673        4.78459
C          9.63094       -4.10230        5.82393
C          9.97792       -3.13656        6.95594
N         10.86236       -3.77662        7.92591
C         11.25254       -3.13925        9.08782
N         11.04489       -1.91474        9.43856
N         11.95889       -3.99188        9.96177
H          3.42032        4.04024        3.77516
H          3.88591        3.42496        2.17384
H          5.12219        3.67504        3.41755
H          2.83825        1.60249        3.59782
H          4.07983        1.84854        4.82398
H          5.85504        1.17227        3.18341
H          4.61613        0.93670        1.94009
H          3.53984       -0.81877        3.42403
H          4.85187       -0.59276        4.59033
H          5.17278       -1.69224        1.73120
H          5.42759       -2.56250        3.25545
H          7.42292       -0.75914        4.08870
H          7.99320       -3.26819        2.08936
H          8.78450       -0.20343        2.93409
H          7.15655        1.45622        1.02168
H          9.29279        1.31529       -2.71535
H          9.42986       -2.06146       -0.04301
H          9.60112       -1.55517        4.61982
H         10.03391       -2.69303        3.31693
H          8.34415       -4.31576        4.10497
H          7.74360       -3.18890        5.32204
H         10.56131       -4.41537        5.32022
H          9.18239       -5.01223        6.26897
H          9.04411       -2.78824        7.44000
H         10.48211       -2.24747        6.54819
H         10.73786       -4.78190        8.01336
H         10.42139       -1.44553        8.77644
H         12.66968       -4.54906        9.49159
H         12.36161       -3.44374       10.71815
