32

C          4.20272        1.90874        2.15472
C          3.10965        2.47003        1.23343
C          3.02053        1.62561       -0.05945
B          2.01465        2.14796       -1.21371
S          1.76729        0.67206       -2.45956
O          2.89061        0.38442       -3.35455
O          1.19915       -0.43152       -1.67349
C          0.31793        1.08643       -3.66931
F         -0.65280        1.81108       -3.06734
F          0.72993        1.74419       -4.76522
F         -0.23125       -0.08667       -4.07463
S          2.47936        3.84400       -2.02248
O          1.84576        4.06629       -3.32477
O          2.35372        4.88596       -0.99638
C          4.38256        3.85411       -2.41504
C          4.82379        4.97557       -3.40380
F          4.38173        6.18346       -3.00108
F          6.18665        5.03439       -3.45700
F          4.38160        4.74226       -4.65006
F          5.07466        4.03901       -1.25176
F          4.75382        2.66111       -2.94513
C          1.76945        2.54067        1.97563
H          5.17905        1.88957        1.64802
H          3.96458        0.87574        2.45859
H          4.30653        2.51212        3.07057
H          3.39228        3.49943        0.96004
H          2.68174        0.61160        0.21978
H          4.03832        1.49106       -0.46280
H          0.88725        2.43606       -0.87421
H          1.41688        1.53069        2.24331
H          0.99477        3.01499        1.35967
H          1.86584        3.12198        2.90599
