52

N          3.53300       -0.62090       -5.07377
C          2.12694       -0.81611       -4.69121
Nb         3.26283       -0.98736       -2.83946
C          1.79179       -0.37798       -1.16782
C          0.38338       -0.94914       -0.88245
C          0.34340       -2.43122       -0.36768
C         -1.03811       -2.88651        0.23467
F         -1.28186       -2.31359        1.42928
F         -2.06486       -2.60450       -0.59420
F         -1.01583       -4.22879        0.42426
F          0.60644       -3.27360       -1.40024
F          1.26348       -2.63059        0.61296
F         -0.30281       -0.18316        0.04427
F         -0.34882       -0.91107       -2.04153
F          2.38448       -0.16052        0.07529
F          1.50057        0.94175       -1.66017
C          5.39284       -1.68196       -2.69968
C          6.31528       -1.94736       -3.73380
C          7.64169       -2.30916       -3.48935
C          8.14106       -2.44127       -2.17574
C          7.22871       -2.18476       -1.12892
C          5.90643       -1.82073       -1.38950
Si         9.90304       -2.95748       -1.87410
C         11.08447       -1.70606       -2.71505
C         12.56385       -2.10213       -2.68245
C         13.49574       -1.09811       -3.32459
F         13.46615        0.11805       -2.70926
F         14.79978       -1.52112       -3.27925
F         13.20973       -0.87922       -4.63970
C         10.31016       -3.00708       -0.02374
C         10.26363       -4.66934       -2.61369
H          3.78695        0.27584       -5.48072
H          3.94831       -1.39248       -5.58418
H          1.60996       -1.61248       -5.23450
H          1.57103        0.13335       -4.75391
H          3.20660       -2.40343       -1.77377
H          3.52113       -2.55213       -3.59128
H          4.43309        0.37386       -2.71380
H          5.99559       -1.87928       -4.77972
H          8.29937       -2.50196       -4.34606
H          7.55414       -2.27687       -0.08734
H          5.24352       -1.64234       -0.53447
H         10.93993       -0.73119       -2.22353
H         10.75209       -1.57621       -3.75688
H         12.73387       -3.05443       -3.20664
H         12.92461       -2.23443       -1.65088
H         10.14897       -2.02624        0.44606
H         11.35639       -3.29891        0.15141
H          9.67244       -3.73460        0.49796
H         10.07492       -4.67661       -3.69705
H          9.59882       -5.41915       -2.16162
H         11.30173       -4.99437       -2.44569
