63

C          0.94366        0.13857       -0.43707
C          2.45807       -0.00423       -0.26428
C          2.91332       -0.61107        1.06152
As         2.61503       -2.70552        1.00652
C          3.26858       -3.00651        3.03470
C          3.28796       -2.08991        4.09377
C          3.79541       -2.44300        5.35426
C          4.30307       -3.72600        5.58418
C          4.29553       -4.64364        4.53134
C          3.78283       -4.28081        3.27667
C          4.81466       -6.03954        4.74016
F          5.48953       -6.18992        5.91920
F          3.81038       -6.97016        4.75509
F          5.67198       -6.42830        3.75146
C          3.86383       -1.43443        6.46600
F          3.02839       -0.37636        6.27936
F          3.54894       -1.97136        7.68502
F          5.12344       -0.90525        6.60916
C          0.56912       -2.65881        1.59503
C         -0.25439       -3.44616        0.78118
C         -1.62308       -3.56772        1.00948
C         -2.20358       -2.90011        2.10356
C         -1.39763       -2.11306        2.93759
C         -0.02792       -1.99486        2.67252
C         -3.67822       -3.01881        2.34971
C         -4.23355       -4.42767        2.78581
C         -3.65212       -5.12296        4.08130
C         -3.81892       -4.38003        5.46151
C         -3.62645       -5.32925        6.71082
C         -3.35856       -4.57185        8.06428
F         -4.29062       -3.62134        8.27728
F         -3.42429       -5.46511        9.07562
F         -2.14313       -4.00604        8.08027
F         -4.75410       -6.06769        6.88435
F         -2.57873       -6.16761        6.50975
F         -2.89972       -3.38420        5.53929
F         -5.06140       -3.83879        5.55188
F         -4.31083       -6.31982        4.18609
F         -2.33733       -5.37551        3.88893
F         -5.58740       -4.34299        2.93740
F         -3.99258       -5.31572        1.77659
F         -4.11702       -2.13203        3.30904
F         -4.39511       -2.73207        1.19697
C          4.39031       -0.33730        1.30766
H          0.69851        0.62550       -1.39344
H          0.50815        0.74570        0.37170
H          0.44529       -0.83881       -0.42083
H          2.92974        0.99069       -0.38634
H          2.85685       -0.62612       -1.08945
H          2.29566       -0.22124        1.88707
H          4.15064       -2.89340        0.54434
H          2.42547       -4.29570        0.97368
H          2.10097       -2.64134       -0.51850
H          2.91418       -1.07396        3.95186
H          4.69758       -4.00263        6.56068
H          3.77697       -5.01109        2.45713
H          0.19978       -3.97299       -0.06773
H         -2.24347       -4.16809        0.34211
H         -1.84067       -1.58714        3.78365
H          0.57083       -1.36631        3.33621
H          5.00049       -0.76106        0.49350
H          4.75450       -0.78565        2.24242
H          4.59959        0.74662        1.34899
