16

O          1.97096       -1.81273       -1.01962
In         3.42694       -0.55459       -0.12744
C          4.29117        0.77798       -1.70766
C          3.22241        1.41855       -2.59753
C          3.77937        2.33760       -3.69871
O          2.20227        0.77392        0.98338
H          1.30681       -1.22005       -1.40348
H          4.45516       -1.58603        0.88626
H          4.99469        0.18824       -2.32119
H          4.88670        1.56166       -1.20770
H          2.52027        1.99445       -1.97104
H          2.61496        0.62818       -3.07321
H          4.36044        3.16565       -3.26157
H          2.98122        2.77901       -4.32156
H          4.45765        1.78215       -4.36695
H          1.45461        0.24488        1.30085
