54

F          6.45776        5.21987        2.47884
C          5.21670        5.57769        2.04301
C          4.27581        4.39674        1.92746
C          4.03041        3.65871        3.24727
Si         2.81328        2.18757        3.14362
C          2.65503        1.43716        4.85185
C          2.09342        2.17528        5.91484
C          2.01833        1.64786        7.20785
C          2.49412        0.35772        7.52085
C          3.03678       -0.37547        6.44840
C          3.12093        0.14233        5.15005
In         2.40121       -0.50815        9.58693
C          0.11924       -0.30140       10.01894
C         -0.41364       -0.62594       11.42539
F         -0.11579       -1.90978       11.76863
F          0.15082        0.18582       12.35634
F         -1.76839       -0.49284       11.55704
F         -0.32432        1.00653        9.76427
F         -0.63167       -1.11295        9.15566
C          2.89783       -2.69404        9.43363
C          1.72067       -3.64434        9.19444
C          2.18412       -5.10784        9.02444
C          1.06122       -6.11399        8.88032
C          1.52824       -7.59270        8.70423
F          2.28443       -7.73089        7.58757
F          2.27557       -7.99320        9.76186
F          0.47918       -8.43871        8.59763
F          0.23603       -6.11213        9.98443
F          0.26723       -5.83954        7.78743
C          1.14926        2.84155        2.51580
C          3.48330        0.92915        1.89703
F          4.75924        6.53183        2.90153
F          5.39468        6.19809        0.83398
H          4.71382        3.73106        1.16826
H          3.33961        4.79395        1.50695
H          3.63930        4.35868        4.00261
H          4.98154        3.27638        3.64940
H          1.70532        3.18454        5.73430
H          1.56709        2.26316        7.99151
H          3.41029       -1.39058        6.62113
H          3.55621       -0.47673        4.35896
H          3.30498        0.40425       10.79596
H          3.43412       -2.98335       10.35244
H          3.62789       -2.78801        8.60992
H          1.15305       -3.34616        8.29997
H          1.01165       -3.59155       10.03330
H          2.78622       -5.41198        9.89463
H          2.82971       -5.19987        8.13727
H          0.72394        3.57799        3.21265
H          0.42556        2.01929        2.42480
H          1.23797        3.32113        1.52925
H          4.47497        0.55590        2.18949
H          3.57251        1.37150        0.89367
H          2.81071        0.06331        1.81629
