53

C          0.82471        0.07017       -0.18435
C          2.35365        0.14026       -0.22184
C          2.92593        1.40042        0.43711
C          4.45588        1.47153        0.40526
C          5.03344        2.75180        1.01759
C          6.56252        2.82599        0.95814
C          7.14192        4.14055        1.49506
C          8.67084        4.23850        1.38251
Si         9.39556        5.96774        1.73792
C          8.70105        7.21267        0.56004
C          8.62769        8.60213        0.86816
C          8.14698        9.53877       -0.02353
C          7.67602        9.18143       -1.33810
C          7.74995        7.77188       -1.64256
C          8.24646        6.85108       -0.72942
N          7.21594       10.13901       -2.14739
C          6.77639        9.74581       -3.40243
O          6.40421       11.02490       -4.13724
C          5.66224       10.89982       -5.21172
F          6.18325       10.06682       -6.18740
F          4.38796       10.41055       -4.98457
F          5.49953       12.12105       -5.79752
C          9.01279        6.42830        3.54237
C         11.28666        5.80164        1.60137
H          0.44662       -0.83713       -0.67715
H          0.37410        0.93628       -0.69178
H          0.45076        0.06655        0.85072
H          2.69805        0.09490       -1.26906
H          2.77616       -0.75188        0.27159
H          2.57739        1.45571        1.48421
H          2.51002        2.29239       -0.06404
H          4.79977        1.38708       -0.64118
H          4.87313        0.59271        0.92948
H          4.70045        2.84010        2.06737
H          4.61108        3.62730        0.49409
H          6.88859        2.70030       -0.08996
H          6.99681        1.97387        1.51243
H          6.83805        4.26898        2.54895
H          6.68147        4.98058        0.94858
H          8.98373        3.95773        0.36053
H          9.15567        3.50493        2.05132
H          8.96153        8.95355        1.85092
H          8.10150       10.59646        0.24673
H          7.40601        7.41219       -2.61511
H          8.27693        5.79926       -1.03722
H          5.85330        9.12096       -3.41872
H          7.53750        9.26537       -4.05921
H          7.92967        6.51939        3.70398
H          9.47011        7.39172        3.81023
H          9.40479        5.66760        4.23460
H         11.56832        5.50844        0.57988
H         11.69271        5.05339        2.30003
H         11.77063        6.76654        1.81133
