69

C          6.35552       -1.52490       -2.26051
C          5.49960       -0.36020       -1.75406
C          5.70806       -0.05299       -0.26773
C          4.85635        1.11193        0.25186
C          5.19323        1.54018        1.68073
Sb         6.71450        3.19987        1.97301
C          7.62425        2.97049       -0.17539
C          7.18759        3.75402       -1.25499
C          7.69015        3.57699       -2.54998
C          8.66814        2.59715       -2.82900
C          9.13542        1.83195       -1.73868
C          8.62147        2.02268       -0.44795
Si         9.20837        2.25284       -4.59272
C         10.17757        3.74163       -5.30392
C         10.60341        3.56882       -6.76725
C         11.40770        4.72531       -7.32313
F         12.56863        4.93137       -6.64105
F         11.75870        4.50668       -8.62977
F         10.72131        5.90204       -7.29981
C         10.32147        0.72323       -4.67531
C          7.69463        1.96040       -5.69442
C          8.02733        5.00134        2.38931
C          9.33125        4.69587        3.12066
C         10.40539        4.07018        2.21742
C         11.02467        5.05551        1.22077
N         11.66551        4.33197        0.12947
C         12.45890        4.94399       -0.81661
N         13.04447        6.09695       -0.74603
N         12.69951        4.13625       -1.94314
H          6.18589       -1.72381       -3.32980
H          6.13436       -2.45287       -1.71033
H          7.42658       -1.31021       -2.12605
H          4.43254       -0.57785       -1.93937
H          5.73324        0.54532       -2.33866
H          6.77251        0.17186       -0.09646
H          5.48594       -0.95663        0.32952
H          3.79087        0.82052        0.17016
H          4.97399        1.97337       -0.43223
H          5.52963        0.69131        2.29874
H          4.32512        1.99987        2.17728
H          8.01948        2.05333        2.51666
H          6.05622        3.36144        3.64860
H          5.51677        4.34429        1.22043
H          6.41033        4.50869       -1.08229
H          7.29530        4.19902       -3.36210
H          9.88686        1.05167       -1.90358
H          8.99046        1.38984        0.37119
H         11.06597        3.90686       -4.67432
H          9.55594        4.64412       -5.19600
H          9.73156        3.45646       -7.42886
H         11.22872        2.67317       -6.90235
H         11.24541        0.85189       -4.09360
H         10.60905        0.49901       -5.71332
H          9.79828       -0.15961       -4.28143
H          7.02629        2.83345       -5.69272
H          7.11597        1.10292       -5.32275
H          7.97525        1.75032       -6.73752
H          7.36072        5.63388        2.99488
H          8.18734        5.50450        1.42346
H          9.12449        3.98644        3.94264
H          9.74889        5.60022        3.60719
H          9.93648        3.24322        1.66214
H         11.21033        3.62116        2.82114
H         11.78209        5.67298        1.73192
H         10.25341        5.74638        0.83363
H         11.14622        3.51376       -0.18161
H         12.84943        6.54731        0.15129
H         11.87721        3.63896       -2.28012
H         13.13526        4.68823       -2.67750
