40

C          1.36033        0.30994       -0.87141
C          2.70714        0.25757       -0.12890
Al         3.18018       -1.57901        0.62998
C          1.88132       -2.31343        2.03668
C          1.65337       -1.58991        3.37587
C          0.87534       -0.28042        3.18078
C          0.93668       -2.47017        4.41702
C          5.09605       -1.57985        1.38759
C          5.45194       -0.47318        2.33443
O          6.82141       -0.59922        2.84704
C          7.14315        0.41285        3.76630
C          8.54215        0.19270        4.30955
O          9.51679        0.56919        3.33836
C         10.82530        0.22737        3.73574
H          1.13543        1.28830       -1.34023
H          0.51882        0.08290       -0.19528
H          1.32441       -0.44626       -1.67328
H          2.72797        1.04353        0.65033
H          3.51696        0.53334       -0.83171
H          3.15888       -2.66542       -0.61988
H          2.26934       -3.33053        2.24657
H          0.89328       -2.48587        1.56099
H          2.63942       -1.32565        3.80626
H         -0.12611       -0.49318        2.76913
H          1.38731        0.38251        2.47037
H          0.73787        0.26329        4.13049
H         -0.06208       -2.75978        4.04839
H          0.80340       -1.95319        5.38474
H          1.50111       -3.39701        4.60068
H          5.78640       -1.56275        0.52606
H          5.23982       -2.55394        1.88934
H          4.77991       -0.45763        3.21823
H          5.37122        0.51897        1.84603
H          6.43494        0.41174        4.62615
H          7.08437        1.42219        3.30324
H          8.66260       -0.87699        4.57108
H          8.68562        0.79242        5.23341
H         11.50449        0.53854        2.93047
H         10.93411       -0.86399        3.89400
H         11.12270        0.74181        4.67324
