24

O          2.02659        0.11669        0.31753
Nb         3.64998       -0.75775       -0.27380
S          3.84110        1.54817       -1.40602
O          4.61869        1.76322       -2.63628
O          2.49406        2.20658       -1.38060
C          4.78941        2.68732       -0.15240
F          4.38296        2.46380        1.12897
F          6.13084        2.51586       -0.19038
F          4.54283        3.99323       -0.43123
C          4.59928       -1.39360        1.69103
C          4.76333       -2.88478        1.41568
S          5.44616       -2.86160       -0.29082
C          4.79975       -4.39557       -1.01674
H          1.80300        0.97509       -0.11214
H          4.28162       -0.81232       -1.92339
H          5.30038       -0.11807       -0.44769
H          2.94399       -2.08004       -1.25890
H          3.85137       -1.19664        2.47832
H          5.54554       -0.92270        1.97769
H          3.79049       -3.40133        1.36067
H          5.40995       -3.46470        2.10006
H          5.10621       -4.39825       -2.07074
H          3.70306       -4.39655       -0.96854
H          5.22302       -5.27617       -0.51488
