58

C          0.12272       -5.62269       -1.89569
O          1.48060       -5.98567       -2.04307
C          2.33099       -4.84489       -2.10058
C          3.77114       -5.31058       -2.26856
O          4.56895       -4.14643       -2.33442
C          5.96162       -4.43309       -2.53438
C          6.65711       -3.09733       -2.78317
C          8.18898       -3.23644       -2.90874
S          8.89286       -1.51416       -3.07988
O          8.07084       -0.56446       -2.33186
O         10.33354       -1.51035       -2.90644
C          8.62431       -0.96002       -4.89841
F          7.33050       -1.04030       -5.26433
F          8.98936        0.34647       -4.93569
F          9.37689       -1.63090       -5.77099
C          8.82593       -3.74277       -1.60874
C          9.75297       -4.79996       -1.59130
C         10.27352       -5.27397       -0.38932
C          9.91113       -4.67886        0.82840
C          9.00002       -3.61575        0.82601
C          8.45945       -3.16623       -0.37719
C         10.48071       -5.19249        2.12104
C         12.02848       -5.00310        2.36430
C         12.67075       -3.56732        2.26453
C         12.27561       -2.41640        3.27839
C         12.47496       -2.66838        4.82062
C         12.51731       -1.34909        5.68370
F         11.48427       -0.53864        5.38973
F         12.43593       -1.68815        6.98833
F         13.66728       -0.67774        5.49816
F         11.44881       -3.41876        5.28887
F         13.64342       -3.32293        5.04973
F         13.06484       -1.35538        2.93624
F         10.98383       -2.06677        3.06927
F         14.01968       -3.74404        2.38126
F         12.41693       -3.06726        1.03144
F         12.34210       -5.50461        3.59683
F         12.69112       -5.75110        1.43628
F          9.85118       -4.63972        3.21157
F         10.30274       -6.56245        2.22147
C          8.61137       -4.06567       -4.27715
O          7.64512       -4.28388       -5.03470
O          9.82262       -4.34634       -4.37483
H         -0.46367       -6.55054       -1.87018
H         -0.22721       -4.99867       -2.74094
H         -0.05085       -5.06092       -0.95711
H          2.23747       -4.24430       -1.17454
H          2.05158       -4.19444       -2.95201
H          3.86791       -5.91639       -3.19095
H          4.06245       -5.95451       -1.41379
H          6.09764       -5.08904       -3.40940
H          6.36419       -4.94125       -1.63638
H          6.38938       -2.40276       -1.97497
H          6.26605       -2.69194       -3.72325
H         10.06871       -5.21770       -2.54766
H         10.97073       -6.11168       -0.40369
H          8.70927       -3.14093        1.76211
H          7.75522       -2.33495       -0.35510
