35

C          0.70382       -1.11919       -0.35619
S          2.12275        0.00768       -0.21672
C          3.30926       -0.80817       -1.35611
C          4.63131       -0.07864       -1.38656
As         6.05770       -1.22215       -2.34581
C          5.60654        0.00962       -4.40290
C          6.12944        1.40965       -4.75724
C          7.66161        1.56991       -5.07545
C          8.26235        0.91936       -6.37983
F          7.49439        1.14494       -7.46097
F          9.47891        1.47869       -6.61267
F          8.45148       -0.40303       -6.24710
F          7.89806        2.91454       -5.19461
F          8.40012        1.10827       -4.03099
F          5.46154        2.00466       -5.81888
F          5.90489        2.22046       -3.66934
F          5.86884       -0.78143       -5.56557
F          4.21945        0.14338       -4.41026
C          7.62207       -2.29869       -3.36222
C          7.14635       -3.59719       -3.86914
O          7.28019       -4.67772       -3.31235
O          6.42227       -3.54959       -5.04170
H         -0.08322       -0.73287        0.30467
H          0.96928       -2.13596       -0.03327
H          0.31776       -1.15277       -1.38475
H          2.86052       -0.83886       -2.35962
H          3.44395       -1.84789       -1.01038
H          5.05584        0.05568       -0.38038
H          4.56089        0.89561       -1.88430
H          4.95382       -2.13780       -3.01830
H          6.24093       -2.12887       -1.08258
H          7.17277       -0.16947       -1.96474
H          8.37451       -2.42467       -2.57814
H          7.96345       -1.61477       -4.14352
H          6.29568       -2.61292       -5.29627
