26

C          1.08236       -0.03825        0.35936
C          2.59997       -0.04374        0.15693
C          3.10017       -1.26226       -0.62447
C          4.61428       -1.26761       -0.85786
C          5.13120       -2.47649       -1.66214
C          4.62840       -2.53300       -3.10773
In         5.47210       -4.18482       -4.28512
S          4.56646       -6.23186       -2.75139
O          5.09494       -6.40425       -1.39621
O          3.10633       -6.28595       -2.90146
F          5.08092       -7.65259       -3.54591
Br         8.05905       -4.11661       -4.01844
H          0.74698        0.84504        0.92265
H          0.75338       -0.93172        0.91124
H          0.55542       -0.03982       -0.60685
H          3.10362       -0.00514        1.13829
H          2.90341        0.87499       -0.37428
H          2.57713       -1.30264       -1.59446
H          2.81314       -2.18423       -0.08863
H          5.12659       -1.24094        0.12083
H          4.90232       -0.33755       -1.38173
H          4.85424       -3.40340       -1.13208
H          6.23273       -2.45254       -1.65967
H          4.88614       -1.60606       -3.64703
H          3.53576       -2.65027       -3.15820
H          5.09139       -4.73700       -5.89256
