22

N          2.21849       -0.07900       -1.38162
C          2.14446        0.07650        0.08988
Al         3.06068       -1.39631        1.09119
S          1.86066       -3.39020        0.32574
O          1.55760       -3.30562       -1.10955
O          2.32360       -4.68413        0.82742
F          0.32699       -3.22356        1.04200
C          4.91392       -1.91297        0.47530
C          5.97929       -0.92048        0.95551
C          7.44195       -1.23814        0.63605
O          8.38668       -0.55991        0.98754
O          7.64120       -2.36969       -0.09567
H          1.58897        0.57512       -1.85206
H          1.90119       -1.01567       -1.64315
H          1.10947        0.18233        0.47883
H          2.65767        1.01731        0.36906
H          2.90772       -1.36937        2.70050
H          4.89324       -1.97382       -0.62686
H          5.10096       -2.92455        0.87810
H          5.94207       -0.78310        2.04891
H          5.80315        0.08470        0.53784
H          6.74404       -2.74435       -0.25190
