30

C          1.86652        0.11231        1.84229
C          2.91778        0.11555        0.72674
C          3.48593       -1.27679        0.40481
C          4.53428       -1.31394       -0.71594
Al         5.45125       -3.10271       -1.02807
C          4.31301       -4.34747       -2.19061
C          5.04124       -5.59798       -2.71671
C          5.51805       -6.57149       -1.62946
C          2.97436       -4.70956       -1.52507
S          7.50772       -2.74846       -2.08595
H          1.48303        1.12196        2.05769
H          2.28532       -0.29237        2.77707
H          1.00644       -0.52070        1.57221
H          3.75239        0.78251        1.00513
H          2.48238        0.54625       -0.19211
H          2.63889       -1.94329        0.15509
H          3.92032       -1.69734        1.33107
H          5.34155       -0.59531       -0.47907
H          4.07978       -0.94551       -1.65643
H          5.87414       -3.76998        0.41335
H          4.07331       -3.73026       -3.08105
H          5.92074       -5.27404       -3.29749
H          4.38720       -6.15867       -3.42194
H          6.19017       -6.06459       -0.92184
H          6.05915       -7.42613       -2.06670
H          4.67563       -6.97719       -1.04784
H          3.11485       -5.23014       -0.56325
H          2.34832       -5.37461       -2.15837
H          2.37375       -3.81204       -1.30905
H          6.98346       -2.23318       -3.22384
