29

C          2.23065        1.70357       -1.78215
C          3.36106        1.03493       -0.99174
C          3.78205       -0.33231       -1.55462
C          4.91255       -1.03127       -0.79097
Ga         5.49793       -2.78383       -1.65085
C          3.97887       -4.18679       -1.27144
F          2.76892       -3.90040       -1.90607
F          4.26454       -5.48973       -1.68112
F          3.60772       -4.34105        0.07035
C          7.31404       -3.49782       -1.06019
C          7.73135       -3.31561        0.40487
C          6.88712       -4.13973        1.38226
H          1.95296        2.68437       -1.36514
H          1.32713        1.07409       -1.78486
H          2.52067        1.85693       -2.83334
H          3.05355        0.91164        0.06136
H          4.24219        1.70044       -0.97310
H          4.07942       -0.20088       -2.61141
H          2.89331       -0.98803       -1.58454
H          4.60713       -1.20494        0.25584
H          5.79348       -0.36435       -0.74805
H          5.48424       -2.64245       -3.25652
H          8.04052       -2.98676       -1.71631
H          7.37014       -4.56752       -1.33182
H          7.65484       -2.24894        0.68169
H          8.79745       -3.58491        0.55246
H          5.82381       -3.87043        1.31256
H          7.21135       -3.99936        2.42601
H          6.95969       -5.21394        1.14817
