41

C          0.81393        0.02258       -0.13503
C          2.34377       -0.00943       -0.06312
C          2.89854       -1.16366        0.77958
C          4.42823       -1.20368        0.85736
C          4.98509       -2.37369        1.67673
C          6.51729       -2.46698        1.70467
C          7.04573       -3.63008        2.49626
C          8.54439       -3.65840        2.55385
C          9.10834       -4.78577        3.43031
C         10.64003       -4.84058        3.47236
C         11.18571       -6.00745        4.29195
N         12.64662       -6.02562        4.26271
C         13.39316       -7.01058        4.87382
N         12.98291       -7.96177        5.64823
N         14.76739       -6.91662        4.57547
H          0.44768        0.86094       -0.74670
H          0.37101        0.12429        0.86797
H          0.41695       -0.90667       -0.57251
H          2.71219        0.94724        0.34648
H          2.75857       -0.07643       -1.08388
H          2.53226       -2.12138        0.36626
H          2.48024       -1.10208        1.80080
H          4.79401       -0.25169        1.28575
H          4.84289       -1.24853       -0.16625
H          4.58422       -3.32133        1.26974
H          4.62401       -2.32057        2.71876
H          6.91536       -1.51795        2.12292
H          6.85525       -2.43957        0.61403
H          6.67021       -4.58034        2.05994
H          8.92199       -2.69120        2.94828
H          9.06870       -3.75541        1.54140
H          8.72080       -5.75067        3.05376
H          8.69557       -4.67134        4.44738
H         11.03505       -3.89538        3.88399
H         11.02521       -4.91529        2.43778
H         10.77064       -6.95812        3.90248
H         10.85580       -5.91895        5.34089
H         13.05947       -5.62354        3.42484
H         11.96014       -7.98583        5.67694
H         15.12710       -5.96291        4.61778
H         15.29486       -7.53588        5.18813
