19

N          1.91570        0.52269       -0.64267
C          1.95843       -0.37886        0.39633
O          1.09573       -0.36776        1.27759
C          3.08655       -1.39318        0.34134
C          4.42171       -0.91387       -0.25524
N          5.35225       -2.00234       -0.24918
C          6.59518       -1.79887       -0.58110
C          7.00269       -1.00473       -1.87106
F          6.60459        0.30111       -1.82707
F          8.33695       -0.99547       -2.14323
F          6.39791       -1.54499       -2.97898
F          7.46270       -0.96753        0.44472
F          7.33541       -2.98931       -0.64790
H          1.26104        1.29141       -0.55503
H          2.72788        0.63658       -1.24130
H          2.73859       -2.26171       -0.24412
H          3.24837       -1.75875        1.36345
H          4.77382       -0.03878        0.33393
H          4.22560       -0.52353       -1.28777
