12

O          1.69338       -0.65627        0.86149
C          2.21041        0.16478        0.06232
O          2.18824        1.40378        0.00522
C          3.08066       -0.60740       -1.05135
C          2.64987       -2.05172       -1.27785
N          3.43914       -2.77268       -2.28560
Br         2.91544        0.33829       -2.85470
Cl         4.82377       -0.53696       -0.56539
H          1.56796       -1.99472       -1.50057
H          2.74810       -2.55332       -0.30572
H          3.38827       -2.25257       -3.16690
H          3.00675       -3.68241       -2.45414
