25

C          0.87814       -0.09786        0.07173
C          2.40983       -0.19223        0.02961
C          3.07093        1.19203        0.08379
In         2.52494        2.71541       -1.46004
C          0.54135        3.75456       -1.04488
C          0.46379        4.12605        0.39456
O         -0.40967        3.72785        1.16830
O          1.44490        4.94468        0.85401
N          3.56625        4.51925       -0.69850
C          2.90732       -1.10601        1.16654
H          0.48784        0.46922       -0.78527
H          0.54541        0.43072        0.97897
H          0.40982       -1.09573        0.06570
H          2.69064       -0.67660       -0.92508
H          4.16900        1.08045        0.06041
H          2.82756        1.67276        1.04838
H          2.84801        2.40834       -3.18076
H         -0.34976        3.19105       -1.34075
H          0.65259        4.64948       -1.67514
H          2.27242        4.92004        0.21539
H          4.39361        4.30142       -0.13877
H          3.88736        5.15215       -1.43359
H          2.63051       -0.68143        2.14546
H          4.00357       -1.20336        1.14636
H          2.47276       -2.11892        1.10452
