72

C         17.87378        2.16439        5.54549
C         16.62988        1.84115        4.71416
C         15.78380        0.70960        5.30670
C         14.53636        0.37520        4.48379
C         13.68425       -0.74570        5.08691
C         12.44027       -1.08571        4.26067
C         11.56533       -2.17694        4.88913
C         10.31180       -2.51558        4.06769
Si         9.08714       -3.70186        4.91613
C          8.53196       -2.93921        6.54293
C          7.75571       -1.76211        6.54822
C          7.39081       -1.13810        7.74053
C          7.77767       -1.64475        8.99890
C          8.54063       -2.82896        8.98913
C          8.90830       -3.45799        7.79586
B          7.34022       -0.85172       10.32447
S          5.51032       -1.34264       10.85239
O          5.08821       -0.77887       12.13538
O          4.65259       -1.12028        9.68269
C          5.17699       -3.27875       11.08544
C          5.94561       -4.06907       12.18689
C          5.31417       -5.44816       12.60159
F          4.15169       -5.29121       13.26305
F          5.09356       -6.23114       11.52453
F          6.16951       -6.10422       13.42425
F          7.20172       -4.34579       11.73851
F          6.03514       -3.33192       13.32443
F          3.84317       -3.33587       11.38103
F          5.37120       -3.90976        9.89566
C          8.38238       -0.78878       11.58222
C          9.77648       -0.10193       11.31091
C          9.74693        1.35029       10.71355
C         11.10445        2.13929       10.82600
F         11.37319        2.49919       12.09514
F         12.14154        1.41867       10.35376
F         11.01406        3.27214       10.08840
F          9.44691        1.28638        9.38897
F          8.81259        2.11481       11.33774
F         10.47367       -0.03499       12.49365
F         10.51100       -0.87080       10.45521
F          7.86835       -0.10654       12.66984
F          8.75383       -2.04403       12.07952
C          7.61269       -3.94047        3.75111
C          9.91489       -5.37966        5.21157
H         18.46464        2.97537        5.09571
H         18.52922        1.28493        5.63734
H         17.59910        2.47687        6.56422
H         16.93156        1.56926        3.68794
H         16.00605        2.74586        4.61636
H         15.48025        0.98259        6.33263
H         16.40827       -0.19606        5.40797
H         14.83996        0.09393        3.45933
H         13.91719        1.28337        4.37717
H         13.37383       -0.45777        6.10618
H         14.30394       -1.65253        5.20444
H         12.74591       -1.39766        3.24555
H         11.83120       -0.17425        4.12758
H         11.26422       -1.85316        5.89961
H         12.17368       -3.08704        5.03333
H         10.59880       -2.93064        3.08477
H          9.75570       -1.58583        3.85038
H          7.42960       -1.31660        5.60258
H          6.78379       -0.23097        7.70678
H          8.86428       -3.26902        9.93328
H          9.50497       -4.37301        7.84948
H          7.01748        0.29566       10.07521
H          7.08546       -2.99101        3.57909
H          6.88698       -4.64811        4.17652
H          7.93619       -4.32789        2.77327
H         10.80665       -5.29080        5.84783
H         10.22744       -5.82951        4.25770
H          9.22337       -6.07905        5.70282
