67

F          6.86189       -2.25917       -2.04250
C          6.01563       -1.46909       -1.33418
C          4.62727       -2.03559       -1.21765
C          4.23247       -3.14647       -1.97347
C          2.92980       -3.66837       -1.89319
C          2.03591       -3.01556       -1.02254
C          2.42617       -1.90638       -0.26636
C          3.72830       -1.40474       -0.35609
C          1.46332       -1.20930        0.65495
F          0.23570       -1.78504        0.68764
F          1.91723       -1.17449        1.94686
F          1.26990        0.10244        0.29801
B          2.43140       -4.92939       -2.77802
S          2.42373       -6.51702       -1.64241
O          1.75597       -7.65908       -2.24785
O          3.67149       -6.75579       -0.92439
F          1.36504       -6.04281       -0.43270
C          3.33693       -5.26990       -4.06930
C          4.61788       -5.85998       -4.00967
C          5.38234       -6.07247       -5.15790
C          4.91357       -5.70403       -6.43557
C          3.63428       -5.11929       -6.50287
C          2.87122       -4.91420       -5.35018
Si         5.96295       -6.04428       -7.95154
C          6.21519       -7.93064       -8.10891
C          4.90021       -8.72159       -8.13611
C          5.11956      -10.22174       -8.21963
C          3.84138      -11.13271       -8.12940
C          2.68756      -10.99295       -9.19521
C          2.93642      -11.29123      -10.73092
C          3.47926      -12.71194      -11.13730
C          3.31255      -13.05655      -12.66676
F          3.81788      -12.07904      -13.44300
F          3.98669      -14.19680      -12.92131
F          2.02319      -13.24994      -12.99280
F          4.80182      -12.78624      -10.85790
F          2.82067      -13.67586      -10.44322
F          1.71711      -11.13575      -11.32709
F          3.77001      -10.34683      -11.23356
F          1.68518      -11.81729       -8.78924
F          2.21852       -9.71311       -9.15327
F          4.23235      -12.44116       -8.13902
F          3.24667      -10.87991       -6.93092
F          5.78357      -10.56457       -9.37976
F          5.91266      -10.65221       -7.18122
C          5.12772       -5.39412       -9.51993
C          7.67797       -5.26575       -7.78504
F          6.59708       -1.26506       -0.11163
F          6.02060       -0.24285       -1.95318
H          4.95594       -3.61266       -2.64284
H          1.01676       -3.39175       -0.93309
H          4.03406       -0.53932        0.23242
H          1.25276       -4.82321       -3.06349
H          5.01628       -6.17476       -3.04193
H          6.36770       -6.53835       -5.05007
H          3.22074       -4.82066       -7.47070
H          1.87832       -4.46581       -5.44084
H          6.82457       -8.25631       -7.25142
H          6.80783       -8.14046       -9.01379
H          4.28341       -8.42724       -8.99695
H          4.30705       -8.51957       -7.23156
H          4.13680       -5.84285       -9.67949
H          5.74206       -5.61377      -10.40544
H          4.99146       -4.30457       -9.46866
H          8.17978       -5.60942       -6.86951
H          7.60106       -4.17080       -7.72762
H          8.32178       -5.51910       -8.64021
