41

C          1.29034        0.15707       -1.19889
C          2.77138        0.02890       -0.83311
C          3.10063       -1.25648       -0.06812
C          4.58294       -1.40568        0.28774
C          4.89693       -2.69880        1.04726
C          6.38853       -2.82343        1.38222
C          6.90853       -4.21383        1.85248
C          6.19416       -4.58819        3.16703
C          6.70835       -5.74942        4.10155
F          6.85032       -6.93641        3.50123
F          7.90326       -5.42596        4.67151
F          5.82554       -5.91579        5.12688
F          6.22186       -3.48779        4.05081
F          4.86468       -4.85069        2.97232
C          6.65313       -5.25843        0.63539
O          7.14610       -4.84917       -0.44712
O          6.04437       -6.31535        0.89995
C          8.44746       -4.06431        2.05907
C          9.27190       -5.33879        1.84957
S         11.03916       -4.97248        2.15002
C         11.74726       -6.58387        1.71290
H          1.08235        1.08890       -1.74533
H          0.65736        0.14975       -0.29817
H          0.96580       -0.68200       -1.83295
H          3.07848        0.89975       -0.22830
H          3.38175        0.06871       -1.75138
H          2.78494       -2.12767       -0.66879
H          2.49650       -1.29379        0.85635
H          4.90169       -0.53392        0.88880
H          5.18410       -1.37530       -0.63800
H          4.59539       -3.56198        0.43255
H          4.28420       -2.73554        1.96102
H          6.67576       -2.04590        2.11124
H          6.95553       -2.64553        0.45664
H          8.65868       -3.62800        3.04886
H          8.78807       -3.33486        1.31082
H          9.15205       -5.67662        0.81121
H          8.97722       -6.15187        2.52335
H         12.83604       -6.50600        1.83124
H         11.51836       -6.84547        0.67039
H         11.37334       -7.37624        2.37684
