44

N          0.68858       -0.65774       -0.18048
C          2.15068       -0.70788       -0.47336
C          2.95843       -1.29814        0.67335
B          4.57942       -1.48055        0.37990
C          5.32082       -0.02976        0.00406
C          5.11759        1.16289        0.96830
C          5.78659        1.05786        2.34692
C          6.80570       -0.19435       -0.35585
C          5.29032       -2.32328        1.61877
C          4.84079       -3.79006        1.79256
C          5.03123       -4.68341        0.55760
C          6.48846       -4.80671        0.11866
N          6.59950       -5.73804       -1.00065
C          7.80175       -6.15421       -1.51729
N          8.99181       -5.75777       -1.20313
N          7.65630       -7.15214       -2.50871
H          0.22047       -0.03285       -0.84327
H          0.57129       -0.22341        0.73890
H          2.54944        0.29416       -0.72701
H          2.28518       -1.33439       -1.37191
H          2.50181       -2.27356        0.92974
H          2.80066       -0.65812        1.57081
H          4.69117       -2.15519       -0.67170
H          4.82769        0.29403       -0.93492
H          4.03443        1.31512        1.12015
H          5.48560        2.09331        0.48616
H          5.39164        0.20994        2.92195
H          5.62427        1.97385        2.93860
H          6.87433        0.91307        2.25906
H          7.40863       -0.54648        0.49749
H          7.26904        0.74814       -0.70992
H          6.92122       -0.94478       -1.15373
H          5.09233       -1.82670        2.58911
H          6.39390       -2.30912        1.52451
H          3.76737       -3.81155        2.04750
H          5.36050       -4.26803        2.64802
H          4.45151       -4.26540       -0.27923
H          4.64272       -5.69757        0.77408
H          7.11080       -5.14944        0.96968
H          6.86175       -3.81930       -0.19335
H          5.82227       -6.38269       -1.10715
H          8.95654       -5.11698       -0.40574
H          6.93079       -6.92722       -3.18736
H          8.55182       -7.28937       -2.97228
