28

C          1.48735       -0.25929        0.71394
C          2.37869        0.00077       -0.52046
C          3.43919       -1.02576       -0.84485
S          3.17472       -2.08415       -2.07927
O          2.06389       -1.68118       -2.95805
O          4.41056       -2.62437       -2.66827
C          2.41982       -3.76091       -1.42091
C          1.91435       -4.81223       -2.44477
F          0.84946       -4.36968       -3.14369
F          2.87898       -5.17115       -3.31676
F          1.51142       -5.96659       -1.80864
F          3.35421       -4.40342       -0.64034
F          1.34139       -3.48312       -0.60419
C          4.81076       -0.94553       -0.21845
C          4.90715       -1.09867        1.31852
C          4.46468       -2.46372        1.84781
H          0.76689        0.56434        0.85989
H          2.07717       -0.35422        1.63724
H          0.91944       -1.19077        0.58535
H          2.88871        0.97607       -0.37890
H          1.72323        0.12458       -1.39556
H          5.25941        0.04251       -0.46386
H          5.46124       -1.69524       -0.69409
H          4.31455       -0.30441        1.80370
H          5.95582       -0.91132        1.61432
H          3.42156       -2.67076        1.57362
H          4.55182       -2.51908        2.94436
H          5.07424       -3.27120        1.41579
