32

I          4.26680       -2.24782       -1.96190
Ta         4.56841       -0.05731       -0.35661
S          4.63163        2.34377       -0.00232
O          3.98193        3.31085        0.88706
O          5.89649        1.63707        0.50756
C          5.47744        3.54217       -1.29784
C          4.52043        4.03012       -2.41831
F          4.08154        2.99594       -3.16155
F          3.45192        4.66885       -1.90025
F          5.16010        4.89786       -3.24860
F          5.91982        4.63332       -0.61485
F          6.54520        2.95158       -1.88546
C          5.64939       -1.20531        1.19968
C          6.97181       -0.90244        1.58341
C          7.65412       -1.66935        2.53714
C          7.03476       -2.76141        3.15095
C          5.72057       -3.07195        2.79378
C          5.04448       -2.31071        1.83015
C          5.05356       -4.27053        3.41246
F          5.56576       -4.58232        4.64068
F          3.71342       -4.09973        3.57935
F          5.20291       -5.39658        2.64570
C          9.08074       -1.35818        2.90315
F          9.45225       -0.09398        2.58125
F          9.31835       -1.51157        4.24281
F          9.96687       -2.19524        2.27166
H          2.81459       -0.06241       -0.50301
H          3.73737        0.61372        1.05336
H          5.27407        0.74980       -1.77024
H          7.47540       -0.03623        1.15118
H          7.55936       -3.34886        3.90354
H          4.02083       -2.59460        1.57240
