60

Br         1.57582        1.27699       -0.15298
Ta         3.73372       -0.06325        0.04599
C          4.75014        0.84776        1.80135
C          5.72482        0.24138        2.62401
C          6.44290        0.95211        3.59160
C          6.21926        2.32726        3.81125
C          5.23984        2.94876        3.00942
C          4.53307        2.23077        2.03891
Si         7.11001        3.27094        5.16797
C          8.74732        2.39055        5.60298
C          9.78160        2.36113        4.46783
C         10.95975        1.45441        4.78365
C         12.07269        1.32151        3.68166
C         12.96175        2.56587        3.29469
C         13.95433        3.24258        4.33077
C         15.03889        2.33806        5.02536
C         16.20089        3.13727        5.73012
F         15.71119        4.05553        6.58441
F         16.95430        2.26233        6.42739
F         16.99269        3.75227        4.83503
F         14.44941        1.57897        5.97897
F         15.62291        1.52851        4.10380
F         14.61879        4.19589        3.61158
F         13.23341        3.87240        5.28978
F         13.71282        2.18092        2.22829
F         12.13714        3.57231        2.88412
F         12.93133        0.32170        4.03600
F         11.45550        0.95193        2.52327
F         11.58751        1.82941        5.95275
F         10.52141        0.16397        4.97820
C          7.48064        5.05286        4.64226
C          6.07816        3.31344        6.75479
C          4.96260        0.79154       -1.59320
C          5.11173        2.31023       -1.52826
S          6.16680        2.94918       -2.90759
C          6.27389        4.70800       -2.45936
H          4.34623       -1.41334       -0.90545
H          2.59166       -1.41325       -0.04866
H          4.21887       -1.41497        1.07631
H          5.91620       -0.82734        2.49991
H          7.18329        0.41448        4.19334
H          5.02160        4.01450        3.13932
H          3.78324        2.76967        1.45034
H          8.49542        1.36247        5.90651
H          9.17838        2.87622        6.49254
H         10.16563        3.37010        4.26487
H          9.33347        1.99186        3.53303
H          8.08536        5.09079        3.72528
H          8.02392        5.59028        5.43410
H          6.55201        5.60687        4.44418
H          5.84846        2.29497        7.09832
H          5.12138        3.82486        6.57727
H          6.60094        3.84098        7.56694
H          4.51494        0.48295       -2.55483
H          5.95444        0.30718       -1.55313
H          5.59826        2.62877       -0.59344
H          4.13868        2.82156       -1.59737
H          6.90439        5.20299       -3.21011
H          6.73794        4.83702       -1.47054
H          5.28398        5.18653       -2.45939
