33

C          6.47947        1.42844        3.73132
O          5.97961        0.92575        2.51120
C          6.42652        1.69807        1.39517
C          5.93364        1.04938        0.10739
O          6.25395        1.93547       -0.93518
C          6.20353        1.34615       -2.24567
C          6.93569        2.24938       -3.23634
C          8.43566        2.10825       -3.26186
C          8.84989        0.85548       -3.98763
C         10.33985        0.55006       -3.84354
C         10.79356       -0.81540       -4.29739
O         10.12775       -1.82246       -4.41199
O         12.17307       -0.92005       -4.50169
C          9.07569        3.33614       -3.85841
H          6.08452        0.79335        4.53636
H          6.15652        2.47423        3.90791
H          7.58677        1.40267        3.76245
H          7.53165        1.75448        1.37705
H          6.03677        2.73314        1.46200
H          4.84039        0.85670        0.17704
H          6.43366        0.07004       -0.03172
H          5.13736        1.20730       -2.53316
H          6.67909        0.34789       -2.21041
H          6.65282        3.28830       -2.98735
H          6.45768        2.06303       -4.25212
H          8.62441        0.90562       -5.10265
H          8.29566       -0.02519       -3.62487
H         10.58526        0.64915       -2.76084
H         10.94062        1.32335       -4.35258
H         12.54496       -0.02927       -4.37923
H          8.73752        4.25785       -3.35548
H          8.83673        3.47561       -4.96370
H         10.17794        3.33410       -3.79746
