26

C          3.41544       -0.79175        1.70221
C          3.01329       -0.23227        0.32680
B          3.11630       -1.30827       -0.93302
C          2.06808       -2.58305       -0.77012
C          0.58505       -2.20574       -0.69270
C         -0.39951       -3.38435       -0.68158
C         -1.86250       -2.95716       -0.59259
N         -2.77363       -4.12370       -0.60560
O          4.53464       -1.81550       -1.10442
H          3.38114       -0.04695        2.51973
H          4.44753       -1.18429        1.67520
H          2.76403       -1.63010        2.00521
H          3.66807        0.62985        0.09559
H          1.98971        0.18776        0.39602
H          2.82020       -0.69926       -1.98599
H          2.31930       -3.19552        0.12505
H          2.21980       -3.25818       -1.63597
H          0.34272       -1.54675       -1.54798
H          0.40743       -1.59275        0.21041
H         -0.16997       -4.06131        0.15915
H         -0.25552       -3.98047       -1.60339
H         -2.07124       -2.23726       -1.40998
H         -2.02739       -2.41488        0.35380
H         -2.57221       -4.68504       -1.43666
H         -3.74157       -3.81175       -0.70794
H          4.72986       -2.40722       -0.36306
