31

C          2.29909       -0.42404       -1.00766
C          3.32737        0.03532        0.02959
C          4.07587        1.31492       -0.38304
C          5.11552        1.79080        0.64491
Ta         5.33662        3.93454        0.29497
C          4.18037        5.15653        1.84186
C          2.71556        4.70450        2.16499
C          2.52632        3.85028        3.46230
F          3.43536        2.85553        3.53869
F          2.62076        4.60613        4.57188
F          1.29272        3.28092        3.46088
F          1.83735        5.74761        2.27318
F          2.27849        3.92234        1.11119
F          4.76623        5.42488        3.07501
F          4.04631        6.39057        1.20037
S          7.68793        3.15223        0.22958
O          8.15005        2.62282        1.51802
O          7.89750        2.30112       -0.95053
F          8.76252        4.40499       -0.03852
H          1.78400       -1.34385       -0.69266
H          2.77768       -0.62403       -1.97854
H          1.53272        0.34865       -1.17280
H          4.06629       -0.76378        0.20680
H          2.82839        0.20978        0.99754
H          3.31566        2.09603       -0.58931
H          4.58120        1.13938       -1.34777
H          5.97515        1.11283        0.68919
H          4.66803        1.80728        1.66264
H          6.27838        4.71435       -0.95843
H          6.41409        5.02806        1.14524
H          4.31731        4.45453       -1.07222
