36

C          2.43961       -0.47400       -0.82906
C          0.98612       -0.35185       -0.43915
C          0.10894       -1.43950       -0.55873
C         -1.23262       -1.33785       -0.17797
C         -1.75954       -0.13571        0.33131
C         -0.87187        0.94976        0.45105
C          0.47139        0.84619        0.07469
Ga        -3.64926        0.01299        0.94540
S         -4.98158       -1.79020       -0.15337
O         -4.16530       -3.02385       -0.19123
O         -6.32618       -1.88489        0.43981
C         -5.47189       -1.51662       -2.04742
C         -4.33779       -1.63420       -3.09532
F         -3.31494       -0.81195       -2.78356
F         -3.86998       -2.89431       -3.17977
F         -4.78264       -1.28260       -4.33803
F         -6.42020       -2.44432       -2.35574
F         -6.02791       -0.27734       -2.16753
C         -4.66189        1.81431        0.58012
C         -4.21940        2.71522       -0.60616
C         -5.16110        3.89497       -1.03166
F         -6.30370        3.45052       -1.58534
F         -5.47111        4.68323        0.01989
F         -4.53494        4.67284       -1.95555
F         -3.00993        3.28376       -0.30144
F         -4.05424        1.94253       -1.71963
F         -6.01960        1.58140        0.41836
F         -4.55018        2.60786        1.72703
H          2.57586       -1.19662       -1.64623
H          3.05492       -0.82057        0.01762
H          2.85025        0.49229       -1.15522
H          0.48085       -2.38509       -0.96530
H         -1.88235       -2.20898       -0.29088
H         -1.22611        1.90956        0.83443
H          1.12842        1.71610        0.17164
H         -4.05704       -0.43251        2.39470
