54

C          0.82640        1.03202       -2.44537
C         -0.30310        0.62715       -1.53003
C         -1.47269        0.04299       -2.04957
C         -2.53149       -0.31105       -1.21487
C         -2.47020       -0.09512        0.17814
C         -1.29049        0.48006        0.68953
C         -0.22531        0.83423       -0.14705
Ta        -4.05769       -0.26006        1.63685
C         -4.66106       -2.36420        1.06887
C         -5.75783       -3.24526        1.70613
F         -6.97319       -2.64634        1.65791
F         -5.89417       -4.45498        1.07735
F         -5.48581       -3.51413        3.00640
F         -5.00240       -2.32849       -0.31201
F         -3.50090       -3.17023        1.09417
C         -4.97515        1.73666        1.59797
C         -4.57346        2.59640        0.54298
C         -5.04311        3.90322        0.41702
C         -5.95515        4.41473        1.35077
C         -6.38271        3.58759        2.40487
C         -5.89954        2.28895        2.51391
C         -6.45720        5.81493        1.21783
C         -7.48814        6.11120        0.05969
C         -8.82384        5.27639       -0.03740
C         -9.90963        5.29611        1.11021
C        -10.59928        6.64108        1.57824
C        -11.38364        7.51013        0.52670
F        -12.25812        6.76463       -0.17426
F        -12.07806        8.45585        1.19933
F        -10.55552        8.13114       -0.32648
F        -11.51658        6.26421        2.51674
F         -9.68875        7.44350        2.17673
F        -10.91153        4.47815        0.67539
F         -9.37880        4.74480        2.22806
F         -9.46283        5.70593       -1.17161
F         -8.50185        3.97274       -0.21052
F         -7.83452        7.43389        0.09709
F         -6.85917        5.89151       -1.13218
F         -7.05046        6.26586        2.37723
F         -5.41972        6.69707        0.94487
H          1.09901        0.21873       -3.13439
H          1.72382        1.30999       -1.87622
H          0.54555        1.89812       -3.06600
H         -1.54805       -0.13404       -3.12679
H         -3.42228       -0.76828       -1.65268
H         -1.19703        0.67455        1.76474
H          0.67641        1.28572        0.27713
H         -3.56947        0.53519        3.15191
H         -5.75276       -0.31925        1.14494
H         -3.80803       -1.33126        3.02601
H         -3.85998        2.24820       -0.20865
H         -4.69078        4.52893       -0.40466
H         -7.08187        3.97415        3.14590
H         -6.24887        1.68037        3.35288
