64

N          2.00105       -1.98120        1.90086
C          2.88153       -0.82284        1.95220
Nb         3.71392       -2.12530        0.38393
C          2.06681       -1.44220       -1.11319
C          1.99465        0.06087       -1.55750
C          3.30236        0.70130       -2.11651
F          3.77297        0.05631       -3.19598
F          3.05439        1.99053       -2.49005
F          4.26813        0.74821       -1.17096
F          1.03402        0.27012       -2.52601
F          1.63528        0.84570       -0.48280
F          2.00743       -2.14148       -2.31434
F          0.72732       -1.60229       -0.58190
C          5.90612       -2.43216        0.35043
C          6.52523       -1.85353        1.48585
C          7.89292       -1.98348        1.75161
C          8.73571       -2.71049        0.88724
C          8.13293       -3.28272       -0.25786
C          6.77033       -3.13601       -0.51751
Si        10.54696       -2.95945        1.27059
C         10.79785       -4.54738        2.31285
C         10.17692       -5.79680        1.67634
C         10.55349       -7.13174        2.29779
C         10.14509       -7.44925        3.78262
C          8.63575       -7.34204        4.22219
C          7.52296       -8.27490        3.58855
C          7.70023       -9.83559        3.71132
C          6.37535      -10.65586        3.47150
F          5.77014      -10.28037        2.33243
F          6.69773      -11.96423        3.37577
F          5.51744      -10.51167        4.49615
F          8.60355      -10.25876        2.79541
F          8.14465      -10.16110        4.95465
F          6.37031       -7.94378        4.23912
F          7.38047       -7.95763        2.28069
F          8.61158       -7.54805        5.56915
F          8.21909       -6.06825        3.98705
F         10.56820       -8.71179        4.08740
F         10.81545       -6.58515        4.60003
F         10.04521       -8.15766        1.52863
F         11.92615       -7.28962        2.28448
C         11.56154       -3.14414       -0.31873
C         11.25053       -1.53126        2.29337
H          1.12191       -1.85150        1.40568
H          1.91185       -2.56980        2.72167
H          3.49035       -0.82495        2.86916
H          2.38472        0.14110        1.80690
H          3.91026       -3.74965        1.07598
H          4.30220       -1.89218       -1.29375
H          2.67171       -3.41554       -0.18290
H          5.92740       -1.27666        2.20492
H          8.30642       -1.50542        2.64648
H          8.74735       -3.84030       -0.97359
H          6.35775       -3.57468       -1.43010
H         10.36233       -4.36621        3.30686
H         11.87942       -4.69580        2.46254
H         10.50690       -5.90785        0.63020
H          9.08116       -5.71990        1.64354
H         11.22274       -3.99092       -0.93253
H         12.62631       -3.30048       -0.09095
H         11.47280       -2.23957       -0.93684
H         10.71246       -1.41425        3.24468
H         11.16800       -0.58211        1.74537
H         12.31205       -1.69977        2.52750
