39

N          1.57675        1.40030        1.77007
C          2.87941        0.79753        1.35085
C          3.99842        1.80932        1.29807
Sb         6.11164        0.95974        0.85764
C          5.82595        1.42067       -1.39019
C          7.16030        1.56557       -2.11461
C          7.86688        2.89753       -1.83869
C          4.93351        0.35809       -2.01459
C          6.34343        0.43967        3.04352
C          6.88064        1.57914        3.89264
C          6.90870        1.30755        5.40642
C          7.46657        2.47572        6.22761
H          0.81113        0.74950        1.56502
H          1.40821        2.22283        1.18467
H          2.79748        0.28724        0.37119
H          3.11447        0.00638        2.08421
H          4.10045        2.33837        2.25908
H          3.82198        2.56290        0.51098
H          7.80612        0.37588        0.50480
H          5.43185       -0.71962        0.59993
H          6.72234        2.65431        1.16572
H          5.30268        2.39235       -1.36713
H          7.01237        1.45211       -3.21008
H          7.83126        0.73668       -1.81510
H          7.24379        3.74423       -2.17100
H          8.83364        2.96390       -2.36202
H          8.04698        3.03083       -0.76301
H          5.36498       -0.65064       -1.89660
H          4.78393        0.52582       -3.10038
H          3.93984        0.32609       -1.54396
H          7.00389       -0.44196        3.06632
H          5.33879        0.12717        3.37248
H          6.28158        2.49151        3.71136
H          7.90227        1.83820        3.55736
H          7.50485        0.39930        5.60142
H          5.88483        1.07326        5.74554
H          8.50238        2.70702        5.93349
H          7.46665        2.26126        7.30764
H          6.87303        3.38943        6.06883
