31

O          1.26377       -0.25225        0.31280
C          2.28457        0.31474       -0.09921
O          2.71369        1.47792       -0.05158
C          3.33608       -0.70543       -0.92589
S          3.33373       -2.42911       -0.15837
O          2.15234       -3.22323       -0.42503
O          4.65305       -3.01474       -0.37487
C          3.24723       -2.10189        1.78297
C          4.14196       -3.10011        2.62165
C          5.64356       -2.68802        2.86423
F          5.71494       -1.67925        3.75882
F          6.30170       -3.75123        3.38979
F          6.28103       -2.31076        1.74968
F          3.59748       -3.19484        3.87646
F          4.10607       -4.33863        2.07337
F          3.63048       -0.83800        2.10284
F          1.98089       -2.30304        2.17832
C          2.83080       -0.88815       -2.36748
C          2.62989        0.37723       -3.32439
C          3.82132        1.33471       -3.69373
F          4.93596        0.64160       -4.01591
F          3.46434        2.06388       -4.78337
F          4.11411        2.19929       -2.71487
F          2.22562       -0.15350       -4.52550
F          1.62411        1.15254       -2.85948
F          3.67384       -1.73540       -3.08444
F          1.59437       -1.46091       -2.39868
C          4.78414       -0.21402       -0.85647
H          5.20199       -0.40207        0.13754
H          4.76616        0.87274       -0.97867
H          5.43709       -0.69359       -1.59452
