32

C          0.68346        1.05314        0.96357
C          2.03749        0.72844        0.32740
C          3.05609        0.16787        1.32345
C          4.43037       -0.11221        0.70379
C          5.57602       -0.36935        1.66695
Nb         6.66139        1.39843        0.86917
C          8.33757        0.00611        1.43395
C          8.05262       -0.61973        0.08357
C          9.26932       -0.72612       -0.82848
O          9.86541       -1.79404       -1.00396
N          9.63831        0.44322       -1.42558
Br         5.07200        3.22511        1.83492
H         -0.02899        1.45388        0.22665
H          0.79735        1.80466        1.75939
H          0.22662        0.15892        1.41619
H          2.46161        1.64298       -0.11954
H          1.89719        0.01452       -0.50381
H          2.67294       -0.75908        1.78620
H          3.19314        0.89749        2.13861
H          4.65960        0.79336        0.05263
H          4.36724       -0.91685       -0.04762
H          5.97627       -1.38808        1.64603
H          5.33425       -0.09275        2.70697
H          7.77322        2.44086        1.74799
H          6.37439        1.70853       -0.87470
H          8.14706        1.91705        0.04910
H          8.15900       -0.67670        2.27281
H          9.32711        0.46481        1.50263
H          7.27112        0.00067       -0.52577
H          7.60386       -1.61771        0.15600
H          9.17933        1.30131       -1.09150
H         10.55074        0.47908       -1.86421
