37

N          1.76910       -1.56824        0.14951
C          2.95521       -0.68620        0.15421
C          3.29794       -0.19795       -1.25435
C          4.53437        0.71027       -1.31485
Al         5.20567        1.15561       -3.16293
C          4.08165        2.81637       -3.80663
C          4.39788        3.62861       -5.09320
C          4.46365        2.79487       -6.41882
C          4.53158        3.63840       -7.74505
F          3.36307        4.25678       -8.00524
F          5.50786        4.56716       -7.70201
F          4.79421        2.80688       -8.78279
F          5.58038        2.01644       -6.39640
F          3.37437        1.99067       -6.53870
F          3.48250        4.64169       -5.29860
F          5.62287        4.22774       -4.93986
F          2.72192        2.47921       -3.90915
F          4.12446        3.80720       -2.80003
C          7.16660        1.70508       -3.13227
C          8.07602        0.53108       -2.75352
C          9.58466        0.77704       -2.71879
O         10.41703       -0.05035       -2.40229
O          9.96747        2.03391       -3.08279
H          1.63310       -1.98326        1.07312
H          1.94057       -2.34915       -0.48827
H          3.85743       -1.16937        0.58337
H          2.72740        0.18158        0.79602
H          2.41767        0.31795       -1.67201
H          3.45560       -1.08480       -1.89748
H          5.36926        0.21181       -0.78289
H          4.34217        1.63939       -0.74822
H          4.97962       -0.05920       -4.22839
H          7.27791        2.54281       -2.41997
H          7.40782        2.08203       -4.14277
H          7.92971       -0.31802       -3.44291
H          7.82054        0.12687       -1.75990
H          9.12514        2.50612       -3.28264
