32

C          1.17417       -1.56623        0.66151
C          2.51755       -0.86977        0.42534
C          3.09819       -0.20813        1.68623
C          4.42123        0.52755        1.46619
Ta         5.35979        1.64180        3.07071
C          4.76295        1.78506        5.27875
F          3.37683        1.56150        5.34139
F          5.27109        0.92605        6.24557
F          4.93818        3.04086        5.86969
C          7.38735        1.36250        3.93294
C          8.37748        0.59095        3.05757
C          9.78100        0.55084        3.67007
S         11.06790       -0.28110        2.64251
H          0.79632       -2.05254       -0.25086
H          0.41068       -0.84811        0.99858
H          1.26097       -2.33881        1.44113
H          2.40627       -0.10657       -0.36423
H          3.25164       -1.59831        0.03924
H          3.24012       -0.97800        2.46344
H          2.34296        0.48894        2.09340
H          4.29018        1.34051        0.71239
H          5.18811       -0.15201        1.04513
H          5.24296        0.00236        3.77472
H          4.31943        3.09666        3.31955
H          6.52671        2.39612        1.87145
H          7.33510        0.90740        4.93356
H          7.73869        2.40916        4.05801
H          8.43705        1.03685        2.05191
H          8.02800       -0.44869        2.92227
H          9.76911        0.08201        4.66384
H         10.17339        1.57197        3.79296
H         10.43361       -1.47315        2.54154
