33

C          8.08342        1.63713       -2.69885
C          6.77302        2.36075       -3.03358
C          5.53978        1.61985       -2.51293
Ta         4.81855        1.56343       -0.43361
C          5.86022       -0.37210        0.00199
C          5.15327       -1.33982        0.90820
O          5.93546       -2.56049        1.11944
C          5.22933       -3.50566        1.89098
C          6.13991       -4.70632        2.11468
O          5.40584       -5.71009        2.81722
C          6.18265       -6.85934        3.07704
Cl         5.17532        2.15078        1.87635
H          8.95720        2.15268       -3.12926
H          8.07785        0.60640       -3.08799
H          8.22937        1.57279       -1.61006
H          6.72560        2.49556       -4.13349
H          6.79757        3.37097       -2.59326
H          5.43674        0.64971       -3.03057
H          4.61139        2.19595       -2.77861
H          3.11191        2.05902       -0.23719
H          5.56857        3.18328       -0.73571
H          3.72165        0.44680       -1.32624
H          6.83349       -0.07660        0.43970
H          6.05400       -0.84427       -0.97358
H          4.17986       -1.63799        0.47198
H          4.95868       -0.89288        1.90218
H          4.30373       -3.83934        1.37595
H          4.92246       -3.08508        2.87139
H          7.03231       -4.40450        2.69723
H          6.49128       -5.09722        1.13972
H          5.54133       -7.57588        3.60816
H          7.06173       -6.62752        3.71078
H          6.54800       -7.32956        2.14253
