63

I          2.71433       -0.41575        2.15409
C          4.41975       -0.07382        0.89424
C          5.29890       -1.17707        0.71125
C          6.64624       -0.98731        0.24561
C          7.51797       -2.05010        0.05118
C          7.14813       -3.38075        0.31463
C          5.85318       -3.58339        0.81645
C          4.96139       -2.53644        1.01945
C          5.45118       -4.98347        1.18432
F          5.84822       -5.90534        0.25061
F          6.01898       -5.39437        2.36731
F          4.10830       -5.14681        1.33705
C          8.93046       -1.77913       -0.38184
F          9.10168       -0.55486       -0.95424
F          9.82028       -1.83483        0.66460
F          9.38265       -2.69788       -1.29314
C          4.53294        1.24876        0.35037
C          3.93495        2.40517        0.93596
C          4.08359        3.67346        0.39193
C          4.81752        3.91556       -0.79252
C          5.37184        2.76725       -1.40775
C          5.23609        1.49412       -0.87431
Si         5.09318        5.63143       -1.46453
C          6.72982        6.34965       -0.79194
C          7.08863        7.77924       -1.22362
C          8.41432        8.28933       -0.64367
C          8.76645        9.71638       -1.07543
C         10.07568       10.24029       -0.47736
C         10.43094       11.66174       -0.92467
C         11.72010       12.20364       -0.29873
C         12.06639       13.62186       -0.75873
C          5.19170        5.60694       -3.36022
C          3.67815        6.78615       -0.94829
H          7.00831        0.02260        0.07067
H          7.83205       -4.20837        0.14230
H          3.97128       -2.75371        1.41585
H          3.34943        2.28477        1.84836
H          3.60684        4.50859        0.91493
H          5.91274        2.86513       -2.35465
H          5.64485        0.65038       -1.42936
H          7.53690        5.65495       -1.08455
H          6.68261        6.29181        0.30982
H          6.28318        8.47334       -0.92512
H          7.13983        7.83682       -2.32542
H          9.22707        7.60396       -0.94186
H          8.36790        8.24001        0.45863
H          7.94212       10.39551       -0.79300
H          8.82708        9.75827       -2.17771
H         10.90021        9.55667       -0.74677
H         10.00823       10.21151        0.62474
H          9.59540       12.34146       -0.67832
H         10.52340       11.68545       -2.02530
H         12.55425       11.52276       -0.53926
H         11.62272       12.18524        0.80012
H         12.20985       13.66156       -1.84921
H         12.98971       13.98827       -0.28775
H         11.26059       14.32817       -0.50757
H          6.01158        4.96412       -3.71193
H          5.35990        6.61512       -3.76697
H          4.25805        5.21876       -3.79176
H          3.61721        6.88330        0.14550
H          2.71196        6.39824       -1.30095
H          3.81109        7.79528       -1.36541
