41

C          1.69848       -0.09681        0.13277
C          2.98910        0.71930        0.03922
P          3.81464        0.80622       -1.76005
C          2.14407        1.45794       -2.53978
C          2.34345        2.09274       -3.90677
C          1.10861        2.81770       -4.45956
C          5.59305        0.27404       -1.10522
C          5.83749       -1.22450       -1.18039
C          7.24999       -1.67351       -0.78119
C          7.44943       -3.18685       -0.86997
N          8.80814       -3.55924       -0.48375
C          9.24893       -4.86609       -0.50520
N          8.56489       -5.93791       -0.73475
N         10.62855       -4.97984       -0.23688
H          1.44705       -0.39034        1.16779
H          1.79117       -1.02681       -0.45574
H          0.83311        0.45138       -0.26937
H          3.73925        0.28993        0.72444
H          2.82446        1.76336        0.35849
H          3.41521       -0.63443       -1.96365
H          4.43452        0.82014       -3.13172
H          4.22183        2.24216       -1.54571
H          1.74322        2.20660       -1.83154
H          1.42004        0.62639       -2.60093
H          2.66443        1.31926       -4.62551
H          3.18838        2.80418       -3.84397
H          0.25560        2.12751       -4.56055
H          1.29679        3.26560       -5.45108
H          0.79130        3.62650       -3.78177
H          5.73177        0.64178       -0.07343
H          6.29898        0.81767       -1.75684
H          5.62631       -1.56696       -2.21111
H          5.10255       -1.74718       -0.54066
H          7.47004       -1.34169        0.24806
H          7.98717       -1.17299       -1.43638
H          7.22064       -3.53169       -1.89730
H          6.74191       -3.69560       -0.19400
H          9.51562       -2.85868       -0.68872
H          7.61633       -5.70362       -1.03900
H         10.93523       -4.40862        0.54800
H         10.86996       -5.95819       -0.09844
