25

O          3.64536        1.16477        0.14796
B          2.53243        0.19481        0.42729
C          3.20623       -1.30459        0.49662
C          2.30021       -2.51904        0.77182
C          1.21795       -2.69235       -0.30363
C          3.10816       -3.81911        0.91433
C          1.80442        0.53951        1.85603
O          1.14187        1.89552        1.75205
C          0.52468        2.35912        2.80771
F          1.32301        2.54422        3.92353
F         -0.01355        3.58575        2.52302
F         -0.52623        1.57850        3.26172
H          3.25089        2.03623        0.01078
H          1.64696        0.25433       -0.45561
H          4.01000       -1.29393        1.26144
H          3.72948       -1.47427       -0.46619
H          1.78073       -2.35393        1.73555
H          1.68469       -2.87856       -1.28595
H          0.61324       -1.78164       -0.40100
H          0.55414       -3.54463       -0.07932
H          3.63846       -4.04427       -0.02645
H          2.46626       -4.68523        1.15336
H          3.86810       -3.72772        1.70575
H          2.52191        0.62425        2.69087
H          1.00224       -0.16209        2.13989
