41

F          1.26620        0.72623        0.12423
As         3.02702       -0.14816        0.15461
C          3.58403        1.03015       -1.50949
C          4.93204        1.25930       -1.80727
C          5.31267        1.92998       -2.97834
C          4.34342        2.39340       -3.87670
C          2.99668        2.16994       -3.58243
C          2.62114        1.49154       -2.41007
C          1.92930        2.63361       -4.53353
F          2.41551        3.40093       -5.55714
F          1.27151        1.58717       -5.12523
F          0.96757        3.38059       -3.91735
C          6.75532        2.20073       -3.29214
F          7.61807        1.55150       -2.46564
F          7.09381        1.83552       -4.57112
F          7.06793        3.53641       -3.20052
C          3.60753        1.31251        1.50245
C          3.28706        2.76227        1.16912
C          3.69861        3.75174        2.27130
C          3.39338        5.21511        1.93092
C          3.79508        6.20459        3.02995
C          3.49516        7.66432        2.67720
H          2.39405       -1.13303       -0.89701
H          2.53358       -1.06270        1.36257
H          4.44888       -0.84243        0.10314
H          5.70477        0.90122       -1.12085
H          4.63384        2.91644       -4.78687
H          1.56685        1.31922       -2.17683
H          4.69075        1.15904        1.65035
H          3.08513        0.99274        2.41725
H          2.20610        2.84714        0.97527
H          3.78940        3.05579        0.23189
H          4.77990        3.64607        2.47582
H          3.18576        3.48263        3.21241
H          2.31432        5.32222        1.72139
H          3.90987        5.48566        0.99275
H          4.87227        6.09197        3.24247
H          3.27383        5.93747        3.96531
H          4.03308        7.97012        1.76696
H          3.78964        8.35019        3.48547
H          2.42122        7.81320        2.48712
