51

Br         3.48444        0.74673        2.13555
Ga         4.17204       -0.58239        0.21083
C          2.48683       -1.61443       -0.42498
F          1.92902       -2.47345        0.50109
F          1.43268       -0.83966       -0.86624
F          2.78978       -2.43652       -1.51788
C          4.71206        0.70948       -1.22997
C          5.06396        2.04112       -0.94307
C          5.49129        2.91849       -1.94354
C          5.58117        2.51098       -3.29070
C          5.21034        1.18457       -3.58405
C          4.78978        0.30862       -2.57688
Si         6.27295        3.67352       -4.59169
C          8.13471        3.91583       -4.26176
C          8.95426        2.61647       -4.24273
C         10.41855        2.80660       -3.82834
C         11.21743        1.49985       -3.79914
C         12.67841        1.67613       -3.37454
C         13.47900        0.37015       -3.37049
C         14.94993        0.54838       -2.98152
C         15.74744       -0.75777       -3.01051
C          6.02473        2.96287       -6.33140
C          5.43316        5.37114       -4.50752
H          5.26053       -1.61558        0.69986
H          4.99264        2.39784        0.08908
H          5.76001        3.94382       -1.66534
H          5.24980        0.82340       -4.61675
H          4.50953       -0.71155       -2.85645
H          8.22494        4.41954       -3.28283
H          8.55106        4.62061       -5.00393
H          8.92469        2.14224       -5.23953
H          8.47968        1.89726       -3.55444
H         10.44991        3.27694       -2.82978
H         10.90643        3.52084       -4.51621
H         11.18448        1.03104       -4.79886
H         10.72181        0.78839       -3.11627
H         12.71351        2.12885       -2.36794
H         13.16966        2.40017       -4.04920
H         13.42305       -0.09345       -4.37166
H         13.00329       -0.34793       -2.67957
H         15.00725        0.99383       -1.97387
H         15.41704        1.28021       -3.66270
H         15.32652       -1.49556       -2.31095
H         16.79937       -0.59849       -2.73336
H         15.73091       -1.21037       -4.01356
H          6.54033        2.00075       -6.45932
H          6.41580        3.65595       -7.09131
H          4.95796        2.79942       -6.54158
H          5.52261        5.80971       -3.50332
H          4.36134        5.28802       -4.73725
H          5.88284        6.07531       -5.22374
