51

C          5.18254       -7.88756        0.60840
C          4.60979       -6.54530        0.14431
C          5.32026       -5.33995        0.76579
C          4.75469       -3.98017        0.33666
C          5.42840       -2.80564        1.05055
Ta         7.49268       -2.09403        0.81680
C          8.09499       -0.02073        0.26921
C          8.46284        0.49419       -1.13915
C          7.26334        0.96511       -1.95627
O          7.14223        2.12758       -2.36573
N          6.33861       -0.00079       -2.21492
C          8.72012       -3.63301        1.78106
C         10.16668       -3.41922        2.23581
C         10.25981       -2.47159        3.43760
C         11.69102       -2.22795        3.90932
N         11.70033       -1.34526        5.07294
C         12.80949       -0.98666        5.80799
N         12.85724       -0.12851        6.77968
N         13.97019       -1.70134        5.49458
H          4.65932       -8.73963        0.14927
H          5.10079       -7.99496        1.70114
H          6.24948       -7.97224        0.35206
H          3.53435       -6.49930        0.38987
H          4.67253       -6.47727       -0.95522
H          6.39509       -5.38492        0.51791
H          5.26531       -5.41943        1.86735
H          3.66106       -3.99463        0.52156
H          4.88110       -3.86432       -0.75406
H          5.32121       -2.93136        2.15157
H          4.89642       -1.85793        0.81635
H          6.83284       -2.17550       -0.88246
H          8.81005       -2.35543       -0.38698
H          7.34493       -1.05279        2.32882
H          9.02195       -0.03301        0.88846
H          7.44501        0.72004        0.76872
H          8.97638       -0.30756       -1.69445
H          9.13646        1.36485       -1.09339
H          6.41755       -0.91340       -1.73174
H          5.46444        0.28689       -2.63923
H          8.67155       -4.46084        1.04382
H          8.10631       -3.96539        2.64830
H         10.75418       -3.00841        1.39683
H         10.65237       -4.37577        2.51579
H          9.67667       -2.88822        4.27661
H          9.78196       -1.51053        3.18045
H         12.27927       -1.80048        3.07132
H         12.16178       -3.18575        4.18691
H         10.90568       -0.72108        5.15702
H         11.92406        0.24154        6.98212
H         14.11896       -1.89203        4.50783
H         14.77619       -1.27874        5.94519
