38

C          4.55571       -1.30891        1.18290
C          4.31654        0.18189        1.47215
C          2.79120        0.42706        1.45270
C          2.12825        1.80525        1.65067
S          2.85022        3.15228        0.65164
O          2.19267        4.40476        0.98858
O          4.31143        3.10507        0.62342
C          2.35872        2.80451       -1.18854
C          3.22756        3.66603       -2.17828
C          2.65000        3.74998       -3.64099
F          1.53120        4.49310       -3.69537
F          3.57386        4.33361       -4.44368
F          2.38267        2.52533       -4.13504
F          3.33472        4.94487       -1.73086
F          4.47097        3.12861       -2.28331
F          2.56299        1.50042       -1.49636
F          1.06044        3.12167       -1.37791
C          0.47267        1.66717        1.23798
O          0.26253        0.81353        0.36049
O         -0.25988        2.42397        1.89197
C          2.19306        2.41134        3.06774
O          1.89937        1.32089        4.00059
C          1.77879        1.66361        5.28153
F          2.92684        2.20912        5.81414
F          0.79237        2.56920        5.53559
F          1.50385        0.54667        5.99697
C          5.01272        0.58029        2.77984
H          4.10046       -1.60998        0.22795
H          4.11658       -1.93903        1.97376
H          5.63206       -1.53449        1.13451
H          4.77834        0.75988        0.65807
H          2.33651       -0.20412        2.23466
H          2.37407        0.04223        0.51303
H          1.39780        3.16265        3.14204
H          3.17707        2.82332        3.33521
H          4.53899        0.09429        3.64693
H          4.99069        1.66559        2.93886
H          6.07083        0.27610        2.76059
