53

N          1.01340        0.26388        0.19286
C          2.44629        0.22574       -0.19583
Ga         2.88182       -1.56317       -1.07588
C          4.86114       -2.01642       -0.90566
C          5.50957       -2.82611       -1.86166
C          6.87204       -3.12350       -1.78957
C          7.67822       -2.61185       -0.75060
C          7.04084       -1.81460        0.21938
C          5.67239       -1.53566        0.14017
Si         9.50904       -2.97737       -0.73128
C          9.80862       -4.84996       -0.57939
C          9.23900       -5.48727        0.69585
C          9.51939       -6.99017        0.80781
C          9.00545       -7.62784        2.10189
C          9.33676       -9.11885        2.21482
C          8.84404       -9.77273        3.50871
C          9.18911      -11.26221        3.61202
C          8.69777      -11.91345        4.90720
C         10.31381       -2.40172       -2.34768
C         10.37058       -2.10224        0.71183
H          0.85568        0.88078        0.99341
H          0.72775       -0.67210        0.49129
H          3.12667        0.36721        0.66935
H          2.64916        1.05448       -0.89523
H          2.01880       -2.65268       -0.23369
H          2.52316       -1.64386       -2.64170
H          4.92718       -3.22537       -2.69912
H          7.32060       -3.75493       -2.56647
H          7.62111       -1.39399        1.04733
H          5.22543       -0.90797        0.91871
H         10.89575       -5.03800       -0.64622
H          9.36265       -5.33162       -1.46750
H          8.15117       -5.30973        0.73762
H          9.65768       -4.98393        1.58531
H         10.60885       -7.15981        0.72865
H          9.07151       -7.50787       -0.05903
H          7.91302       -7.48606        2.17291
H          9.43482       -7.09223        2.96756
H         10.43068       -9.25347        2.13447
H          8.90537       -9.65363        1.34997
H          7.75005       -9.64515        3.58989
H          9.27298       -9.23851        4.37543
H         10.28259      -11.38651        3.52805
H          8.75967      -11.79357        2.74552
H          9.13686      -11.42511        5.79040
H          8.96094      -12.98007        4.95164
H          7.60396      -11.83675        5.00076
H          9.85130       -2.90212       -3.21044
H         11.39260       -2.61708       -2.36458
H         10.17376       -1.31954       -2.47961
H          9.94572       -2.39938        1.68070
H         10.27060       -1.01117        0.62373
H         11.44334       -2.34530        0.72249
