32

N          0.70723        0.89585        2.04925
C          2.10552        1.41366        2.04310
C          3.05093        0.51557        1.25732
B          4.60347        1.06328        1.11956
C          5.53723        0.07598        0.16659
C          4.92571       -0.24440       -1.21694
C          4.66880        0.97009       -2.12005
C          6.97839        0.59019        0.00101
C          5.28877        1.31956        2.57735
O          5.39867        0.02025        3.36945
C          5.90221        0.08798        4.57311
F          7.20545        0.55652        4.63893
F          5.20391        0.89576        5.45727
F          5.92208       -1.15776        5.13988
H          0.16538        1.36560        2.78029
H          0.74379       -0.08987        2.32285
H          2.49154        1.54847        3.07268
H          2.08247        2.41615        1.58127
H          2.60589        0.36888        0.25599
H          3.04811       -0.48796        1.73430
H          4.58891        2.21868        0.64192
H          5.61178       -0.90266        0.68452
H          3.97146       -0.77754       -1.07197
H          5.58608       -0.95091       -1.76150
H          3.99373        1.68467       -1.62935
H          4.21803        0.66749       -3.07921
H          5.60123        1.50869       -2.34944
H          6.99736        1.61692       -0.40166
H          7.57764       -0.04408       -0.68134
H          7.50986        0.61770        0.96419
H          4.70303        1.99603        3.21947
H          6.31687        1.71067        2.52290
