19

O          2.37939       -2.39470        2.40335
N          2.22713       -2.86441        1.01053
S          2.53397       -1.67481        0.00077
O          2.09242       -2.09217       -1.32715
O          2.27942       -0.30655        0.44879
C          4.45885       -1.64733       -0.22318
C          5.14513       -0.76057       -1.31065
C          4.98622        0.80838       -1.29533
C          5.41739        1.61028       -0.01460
F          6.67500        1.28639        0.36133
F          5.41321        2.93489       -0.32726
F          4.59227        1.42844        1.01477
F          5.79894        1.27132       -2.30549
F          3.71873        1.15591       -1.59881
F          6.50673       -0.99709       -1.26475
F          4.71441       -1.15440       -2.53942
F          5.04598       -1.31651        0.98317
F          4.86417       -2.92536       -0.51838
H          3.20791       -2.82920        2.66570
