33

N          2.72754       -1.21395        0.42032
C          2.26155       -0.56841       -0.69345
O          1.21786       -0.91649       -1.24927
C          3.11440        0.60147       -1.18613
C          4.52019        0.77234       -0.60505
Ga         5.59309        2.29230       -1.40632
S          4.49281        4.16432       -0.22032
O          3.07751        4.36644       -0.54090
O          4.86462        4.23699        1.19710
F          5.23818        5.55512       -0.87643
C          7.47733        2.40568       -0.69202
C          8.28929        1.13946       -0.98274
C          9.70952        1.20147       -0.38650
C         10.53550       -0.04264       -0.63629
C         11.97307       -0.00827       -0.03323
F         12.68584        1.02181       -0.54909
F         11.92651        0.14909        1.31116
F         12.64838       -1.14989       -0.29305
F          9.93191       -1.16403       -0.10630
F         10.69729       -0.27918       -1.98557
H          2.15798       -1.94183        0.83258
H          3.56196       -0.88661        0.89178
H          2.51185        1.50758       -1.00343
H          3.14429        0.50206       -2.28230
H          5.11511       -0.14574       -0.75462
H          4.48578        0.96375        0.48114
H          5.34279        2.60536       -2.93549
H          7.41278        2.57792        0.39452
H          7.97569        3.28818       -1.12376
H          8.37001        0.97399       -2.06905
H          7.77761        0.25394       -0.57337
H          9.65310        1.35264        0.70229
H         10.25903        2.05862       -0.80441
