23

C          2.44845       -0.51941        0.03499
C          0.98520       -0.14867        0.04940
C          0.00289       -1.05032       -0.38634
C         -1.34923       -0.71013       -0.38258
C         -1.78074        0.56392        0.03990
C         -0.79194        1.47077        0.46674
C          0.55688        1.11480        0.47991
C         -3.21695        0.94786        0.03198
S         -3.95487        1.39744        1.49974
O         -3.01112        2.09173        2.35402
O         -5.30677        1.88200        1.36979
F         -4.15108       -0.04621        2.30917
S         -4.16258        0.53549       -1.32155
O         -5.45553        1.17159       -1.37420
O         -3.32549        0.47842       -2.50320
F         -4.56165       -1.07715       -1.09955
H          2.60297       -1.56232        0.34931
H          3.03090        0.12717        0.70643
H          2.88193       -0.41940       -0.97413
H          0.30010       -2.04872       -0.72034
H         -2.08839       -1.44076       -0.71092
H         -1.09696        2.45935        0.80633
H          1.29614        1.84259        0.82689
