16

C          1.25605        0.33413       -0.11051
C          2.46904       -0.57084       -0.14554
S          3.09202       -1.22567        1.28021
O          4.51018       -1.54165        1.23176
O          2.52614       -0.52770        2.43457
C          2.30114       -2.94371        1.48099
F          0.94230       -2.85566        1.47087
F          2.66165       -3.79674        0.49967
F          2.65873       -3.50610        2.66692
S          3.23210       -0.81488       -1.63304
O          4.05246       -1.99998       -1.72873
O          2.31888       -0.46228       -2.70653
F          4.35775        0.41312       -1.73229
H          0.90263        0.40591        0.92514
H          0.44034       -0.04903       -0.74090
H          1.49445        1.35395       -0.45222
