78

C          0.94045        0.63080       -2.28660
C          2.22359        0.61563       -1.45048
C          3.25435        1.66129       -1.88902
C          4.54096        1.65551       -1.05620
C          5.56596        2.71339       -1.49188
C          6.84434        2.73952       -0.67770
As         8.13028        4.27697       -1.27037
C          7.06292        5.72318       -0.20533
C          6.50397        6.79332       -0.91192
C          5.90484        7.86723       -0.25048
C          5.83775        7.90496        1.16004
C          6.39141        6.81877        1.86668
C          6.99022        5.74859        1.19013
Si         5.23615        9.45039        2.01683
C          6.56106       10.80332        1.74485
C          7.96753       10.27406        2.04892
C          9.11407       11.27939        2.07931
C          9.88506       11.60339        0.74398
C          9.16784       12.27174       -0.49167
C          8.50083       13.70113       -0.39764
C          9.33952       14.98346       -0.00090
C         10.59483       15.38079       -0.86388
F         10.29728       15.40845       -2.17577
F         10.98309       16.62046       -0.49028
F         11.62261       14.54426       -0.66346
F          8.46307       16.02501       -0.10181
F          9.73738       14.88896        1.28933
F          7.98193       13.94155       -1.63570
F          7.46937       13.64831        0.48220
F         10.10373       12.34980       -1.48235
F          8.18587       11.43411       -0.91656
F         10.95183       12.39843        1.05452
F         10.36889       10.42369        0.26455
F          8.73864       12.47789        2.64390
F         10.11439       10.77582        2.89180
C          3.61355       10.09972        1.29466
C          5.02171        9.19275        3.87983
C          9.28948        2.98687       -2.46925
C         10.22142        3.82652       -3.29940
S         11.14835        2.84091       -4.55180
C         12.07305        4.16144       -5.39526
H          0.21988       -0.12779       -1.94630
H          1.15555        0.43293       -3.34790
H          0.44270        1.61104       -2.23243
H          2.68213       -0.38728       -1.49835
H          1.97230        0.77943       -0.38840
H          2.79666        2.66581       -1.84153
H          3.50831        1.49906       -2.95208
H          5.00598        0.65430       -1.10772
H          4.28794        1.81449        0.00759
H          5.08943        3.71088       -1.44701
H          5.80921        2.55941       -2.55906
H          7.41628        1.80189       -0.76684
H          6.64387        2.92038        0.38960
H          7.18835        4.61094       -2.56434
H          9.10112        5.50621       -1.70217
H          9.03384        3.99221        0.05128
H          6.55825        6.78256       -2.00788
H          5.49445        8.69596       -0.83931
H          6.36376        6.80888        2.96132
H          7.43480        4.92729        1.76412
H          6.32679       11.67307        2.37783
H          6.47655       11.13437        0.70149
H          8.23997        9.46292        1.35796
H          7.99495        9.82731        3.05538
H          3.69316       10.24247        0.20792
H          3.33596       11.06447        1.74450
H          2.79738        9.38717        1.47845
H          5.96208        8.90509        4.37039
H          4.28795        8.39962        4.08080
H          4.66330       10.11762        4.35483
H          8.57299        2.42914       -3.09042
H          9.82252        2.29747       -1.79807
H         10.96023        4.34016       -2.66424
H          9.65391        4.60219       -3.84357
H         12.67250        3.69178       -6.18639
H         12.74869        4.68473       -4.70316
H         11.39230        4.89269       -5.85535
