63

O          2.24445        0.04913        0.89112
C          2.56882        0.56592       -0.19626
O          2.57973        1.73537       -0.61138
C          3.20681       -0.52590       -1.23732
S          2.43533       -2.20150       -0.83457
O          0.98611       -2.10318       -0.83095
O          3.07411       -3.20743       -1.68289
C          2.90583       -2.74542        1.00059
C          3.20508       -4.28940        1.04505
C          3.30271       -4.89384        2.49745
F          4.19063       -4.22181        3.25541
F          2.11095       -4.88929        3.12118
F          3.71793       -6.17968        2.40522
F          2.21339       -4.97468        0.41579
F          4.39220       -4.54878        0.44096
F          3.99939       -2.10173        1.45976
F          1.85234       -2.51440        1.80114
C          2.86837       -0.16700       -2.67440
C          3.55096        0.95071       -3.19633
C          3.26414        1.43277       -4.47251
C          2.28353        0.82869       -5.26526
C          1.59906       -0.26944       -4.74740
C          1.88101       -0.76707       -3.46813
C          0.57655       -0.96918       -5.60328
F         -0.03632       -0.11868       -6.47818
F          1.14011       -1.95683       -6.36977
F         -0.40349       -1.56212       -4.87491
C          3.98083        2.64897       -4.99744
F          5.18243        2.85308       -4.39892
F          4.21855        2.56137       -6.34229
F          3.25493        3.79299       -4.81828
C          4.71972       -0.59691       -1.03586
C          5.51484       -1.39658       -1.87707
C          6.89952       -1.42724       -1.73882
C          7.52403       -0.63745       -0.76229
C          6.74372        0.15914        0.08375
C          5.35564        0.17205       -0.04899
C          9.02272       -0.66037       -0.62666
C          9.86068        0.03048       -1.77217
C          9.61147        1.54590       -2.12812
C          9.91816        2.70116       -1.08738
C         11.37819        2.82347       -0.51079
C         11.69126        4.21454        0.16213
F         10.75065        4.54087        1.06697
F         12.88034        4.12240        0.79516
F         11.77902        5.19551       -0.75222
F         11.56813        1.87316        0.43558
F         12.29092        2.65282       -1.50257
F          9.64545        3.86059       -1.75385
F          9.05560        2.59885       -0.04749
F         10.36434        1.80473       -3.23550
F          8.30526        1.69693       -2.46279
F         11.18883       -0.10927       -1.48846
F          9.61291       -0.64915       -2.92923
F          9.43513       -0.09406        0.55439
F          9.48747       -1.96223       -0.62382
H          4.30415        1.44788       -2.59057
H          2.06040        1.20522       -6.26220
H          1.30579       -1.61408       -3.10073
H          5.03804       -2.01045       -2.64002
H          7.49376       -2.06700       -2.39064
H          7.21612        0.76886        0.85240
H          4.75836        0.79204        0.61891
