50

C          2.58394       -1.58676       -1.10607
C          2.84345       -0.45540       -0.18827
C          3.22744       -0.42892        1.13133
C          3.41827        0.81067        1.86910
C          3.79756        0.82012        3.19376
C          4.04209       -0.36565        3.95192
C          3.85808       -1.58656        3.22851
C          3.47725       -1.63404        1.90714
Si         4.46862       -0.36316        5.73182
C          2.99829       -1.03653        6.78135
C          3.24082       -1.15234        8.29355
C          2.06480       -1.75509        9.04440
C          2.25516       -2.03116       10.57679
C          2.60926       -0.85887       11.56416
C          1.64321        0.36987       11.76444
C          0.17511        0.09826       12.25921
C         -0.56474        1.36677       12.82938
F         -0.47500        2.40814       11.98123
F         -1.87142        1.06710       13.00018
F         -0.06501        1.73321       14.02452
F         -0.57159       -0.36209       11.22473
F          0.17940       -0.83066       13.25286
F          2.24829        1.15477       12.72082
F          1.59069        1.08486       10.61501
F          2.79524       -1.42774       12.78960
F          3.80830       -0.32060       11.17401
F          1.13119       -2.63888       11.07414
F          3.28738       -2.92484       10.70478
F          0.93506       -0.97787        8.91087
F          1.74708       -2.99503        8.52738
C          5.95053       -1.49265        6.13811
C          4.86817        1.38183        6.37186
F          2.62431        0.78039       -0.82865
H          2.79767       -2.54079       -0.60709
H          3.21248       -1.54428       -2.01873
H          1.53133       -1.62667       -1.45558
H          3.25225        1.75402        1.34759
H          3.91827        1.79573        3.67833
H          4.02415       -2.54334        3.73903
H          3.35852       -2.61009        1.43024
H          2.73769       -2.02182        6.36430
H          2.13383       -0.38362        6.58488
H          3.44281       -0.16441        8.73165
H          4.11621       -1.78351        8.50802
H          5.77154       -2.51574        5.77464
H          6.17011       -1.55118        7.21621
H          6.85194       -1.12043        5.63026
H          4.01665        2.06417        6.23514
H          5.72466        1.80610        5.82842
H          5.12446        1.37348        7.44236
