44

O          5.23176        1.51722        5.26753
C          5.04650        2.81774        4.86786
O          5.08898        3.70055        5.69803
C          4.75910        3.00510        3.39374
C          5.79225        2.35555        2.45191
C          5.36135        2.19982        0.99512
C          5.00009        3.46267        0.27665
C          5.58821        4.68970        0.64580
C          5.36107        5.85459       -0.08869
C          4.53413        5.86001       -1.22813
C          3.95709        4.62556       -1.59696
C          4.18576        3.45868       -0.87319
Si         4.28706        7.40622       -2.25890
C          5.63881        7.51116       -3.60500
C          5.75130        6.25421       -4.47575
C          6.78031        6.36782       -5.57876
F          8.03533        6.61166       -5.10737
F          6.85431        5.22703       -6.32301
F          6.49270        7.38149       -6.45541
C          2.59645        7.38343       -3.11208
C          4.42760        8.97123       -1.20593
C          6.50729        1.37456        0.11913
O          6.20925        1.20191       -1.07367
O          7.50508        1.06865        0.80350
Br         3.76097        0.93523        1.03844
H          5.20515        0.94481        4.47745
H          4.66355        4.08151        3.21057
H          3.77353        2.54668        3.19577
H          6.09270        1.35093        2.78384
H          6.73337        2.92582        2.46404
H          6.25010        4.74067        1.51090
H          5.83999        6.77853        0.24756
H          3.30796        4.56678       -2.47524
H          3.73920        2.51868       -1.19177
H          6.60227        7.69953       -3.10488
H          5.43309        8.39191       -4.23599
H          4.79836        6.01736       -4.97300
H          6.02392        5.37655       -3.87114
H          2.46343        6.49754       -3.74909
H          2.46920        8.27310       -3.74658
H          1.78679        7.37694       -2.36877
H          5.40718        9.03992       -0.71188
H          3.65675        8.98918       -0.42277
H          4.30420        9.87112       -1.82617
