29

N          1.26551       -0.44882        0.22415
C          2.60828        0.12241       -0.02307
C          3.04120        1.05804        1.11058
C          4.42111        1.70123        0.89465
Nb         5.22005        2.73649        2.68791
C          3.71021        4.15375        3.51431
C          2.34094        3.53237        3.75621
N          1.45076        4.40722        4.57816
C          7.26814        2.40128        3.54930
H          0.93447       -0.94807       -0.60379
H          0.60341        0.31604        0.37612
H          2.67807        0.67961       -0.98005
H          3.32264       -0.71511       -0.09301
H          3.00380        0.48900        2.05651
H          2.27056        1.84748        1.20397
H          4.41844        2.33312       -0.01054
H          5.18688        0.91847        0.71717
H          6.37800        3.05155        1.38184
H          6.00650        4.32559        2.71982
H          5.09203        1.38739        3.94826
H          3.61587        5.11717        2.98804
H          4.20258        4.37394        4.48731
H          2.45720        2.52940        4.21585
H          1.82093        3.37480        2.79528
H          1.98905        4.72066        5.38999
H          0.67231        3.85596        4.95326
H          8.07475        3.03809        3.16586
H          7.52269        1.34066        3.36252
H          7.20263        2.51629        4.64709
