21

N          2.56165        1.07450       -1.84002
Nb         2.79598       -0.32988       -0.49557
S          4.31174        1.63358        0.32389
O          5.53539        1.33716        1.08187
O          4.42533        2.75807       -0.64875
C          3.13250        2.41709        1.70887
C          3.22505        3.96056        1.88533
C          2.50812        4.55191        3.15455
F          3.12252        4.18717        4.29641
F          2.52580        5.90897        3.09610
F          1.21795        4.16076        3.21871
F          4.53150        4.33234        1.98207
F          2.66321        4.58076        0.81137
F          1.83673        2.10713        1.35707
F          3.38568        1.83400        2.91371
I          0.59543       -1.82949        0.19364
H          2.98915        2.00651       -1.85983
H          1.99890        0.86641       -2.66799
H          4.51600       -0.66620       -0.48935
H          3.37520       -0.32284        1.17291
H          3.44263       -1.60476       -1.52223
