12

Ga         1.11345        0.18076       -0.43579
C          0.12459        1.80694        0.21594
C          1.00722        3.04764        0.37555
Br         2.94640       -0.28421        1.17069
S          2.14746        0.73655       -2.46978
H          0.32345       -1.19377       -0.55279
H         -0.36406        1.54434        1.16862
H         -0.68494        1.99578       -0.51136
H          1.80104        2.86779        1.11660
H          0.44375        3.94208        0.69929
H          1.51106        3.29372       -0.57182
H          3.30235        0.12568       -2.12207
