48

Br         1.00789       -0.32091       -0.92874
B          3.02389       -0.60378       -0.73118
S          3.72125        0.38523        0.82487
O          5.14277        0.05568        0.97691
O          3.33220        1.79710        0.89624
C          2.95624       -0.48626        2.46050
C          2.13881        0.37681        3.48163
C          0.70090        0.92739        3.12228
C         -0.52061       -0.06927        3.16384
F         -0.72169       -0.55071        4.41081
F         -1.63057        0.62372        2.81041
F         -0.38544       -1.09922        2.32328
F          0.41152        1.87610        4.07197
F          0.70281        1.52301        1.91698
F          1.97727       -0.36804        4.63177
F          2.90038        1.45374        3.80637
F          2.22281       -1.57590        2.10268
F          4.02920       -0.93235        3.17248
C          3.87273       -0.02303       -1.95688
C          5.02325       -0.70705       -2.39437
C          5.78903       -0.23958       -3.46187
C          5.44529        0.94426       -4.14474
C          4.30675        1.64101       -3.69579
C          3.54140        1.16721       -2.62968
Si         6.53208        1.57315       -5.53352
C          8.18487        2.17191       -4.79538
C          8.00496        3.15959       -3.63617
C          9.30281        3.73824       -3.11688
F         10.16717        2.78341       -2.67059
F          9.97613        4.44961       -4.07625
F          9.09610        4.59778       -2.07849
C          6.92849        0.19939       -6.77062
C          5.72104        3.01669       -6.44769
H          3.24605       -1.75839       -0.45881
H          5.31866       -1.62331       -1.87880
H          6.67123       -0.81182       -3.76687
H          4.00530        2.57071       -4.18614
H          2.65915        1.72397       -2.30782
H          8.78448        2.62677       -5.60058
H          8.74284        1.28881       -4.44615
H          7.49999        2.67916       -2.78500
H          7.38407        4.02111       -3.92631
H          7.40067       -0.65788       -6.27054
H          7.61350        0.55422       -7.55442
H          6.00959       -0.16145       -7.25326
H          5.53013        3.87187       -5.78447
H          4.75874        2.71274       -6.88271
H          6.37045        3.36303       -7.26467
