36

O          3.63752       -1.30190       -1.37180
C          4.54023       -1.65435       -0.40459
O          4.76484       -2.83022       -0.19511
C          5.19442       -0.49448        0.33180
C          4.72808        0.92393       -0.01388
B          5.53876        2.06838        0.85972
C          4.96797        3.58353        0.55322
C          3.61661        3.98337        1.22881
C          2.99009        5.38047        0.88041
F          3.82941        6.40177        1.14360
F          2.61495        5.46237       -0.41308
F          1.87007        5.57312        1.63462
F          2.64043        3.07025        0.91312
F          3.76882        3.97761        2.58768
F          5.85971        4.57584        0.97251
F          4.77552        3.83770       -0.82197
C          7.13290        2.02434        0.53507
C          7.65754        2.19673       -0.76418
C          9.02636        2.12393       -1.03566
C          9.95434        1.86428       -0.01508
C          9.45477        1.69246        1.28243
C          8.08209        1.77316        1.54380
C         11.43111        1.74893       -0.31073
H          3.60476       -0.32079       -1.36315
H          6.27941       -0.59779        0.16499
H          5.05846       -0.69412        1.40717
H          3.64360        1.00984        0.17360
H          4.89201        1.12007       -1.09276
H          5.36261        1.86495        2.06001
H          6.97312        2.40578       -1.59139
H          9.38523        2.27292       -2.05947
H         10.15328        1.49326        2.10201
H          7.72701        1.63938        2.56946
H         11.75668        2.50277       -1.04333
H         11.68492        0.76119       -0.73052
H         12.03175        1.88042        0.60075
