38

F          1.08832        1.17399        0.20593
C          1.83865        1.52667       -0.86555
S          3.23212        0.18526       -1.15204
O          4.01215        0.75180       -2.25112
O          3.80774        0.14121        0.18693
B          2.69482       -1.62101       -1.67891
S          1.59468       -2.64304       -0.43698
O          1.71801       -4.05490       -0.78883
O          1.88376       -2.21299        0.92639
C         -0.35744       -2.33320       -0.44294
C         -1.22456       -2.67245       -1.69270
C         -2.78276       -2.65699       -1.45782
F         -3.17326       -3.66024       -0.64797
F         -3.40879       -2.81829       -2.64768
F         -3.19553       -1.49029       -0.92515
F         -0.97586       -1.75577       -2.66540
F         -0.92371       -3.91320       -2.15261
F         -0.77665       -3.12842        0.58270
F         -0.58472       -1.03938       -0.10223
C          2.38039       -1.83683       -3.27631
C          3.58756       -2.25126       -4.20742
C          4.03892       -3.75796       -4.12082
C          5.44961       -4.05092       -4.75635
F          5.53778       -3.56559       -6.01189
F          6.44714       -3.53066       -4.02042
F          5.63258       -5.39136       -4.81352
F          4.10395       -4.16867       -2.82972
F          3.14622       -4.54030       -4.78481
F          3.23353       -2.03322       -5.51132
F          4.66877       -1.47053       -3.93805
F          1.42816       -2.82336       -3.49296
F          1.87200       -0.68994       -3.85753
C          0.87510        1.91256       -2.02235
F          0.07564        0.88075       -2.34851
F          0.07487        2.94304       -1.62723
F          1.54555        2.31331       -3.11521
F          2.54826        2.64575       -0.54745
H          3.73403       -2.13706       -1.34130
