26

N          1.56537        1.03721       -1.26502
C          2.77810        0.48777       -0.62748
C          3.13612        1.25427        0.64653
C          4.39048        0.72005        1.35414
Al         5.05884        1.83340        2.87797
S          3.37050        1.42179        4.59182
O          2.02596        1.89812        4.26535
O          3.47962        0.08899        5.19125
F          3.84715        2.44728        5.85975
C          6.75534        1.07296        3.69420
O          7.62730        2.17339        4.18164
C          8.83181        1.83433        4.61190
F          9.63834        1.27032        3.64251
F          9.47499        2.94771        5.05030
F          8.83725        0.93301        5.64791
H          1.41486        0.60326       -2.17735
H          1.70280        2.03473       -1.44260
H          3.66439        0.48839       -1.29641
H          2.57687       -0.56630       -0.37246
H          2.27136        1.23464        1.32867
H          3.28200        2.31832        0.38019
H          5.22712        0.66986        0.62839
H          4.22238       -0.32175        1.67989
H          5.05777        3.42885        2.65634
H          7.33057        0.50442        2.94408
H          6.55784        0.40090        4.54328
