25

N          0.82404        0.11840        0.53751
C          2.13448       -0.36075        0.02666
C          3.06339       -0.74843        1.16874
Ga         4.84570       -1.41126        0.55389
S          5.98433        0.70691       -0.09704
O          5.07226        1.85534        0.09768
O          7.39315        0.87736        0.30294
C          6.11056        0.62671       -2.02887
F          4.90394        0.33934       -2.58789
F          6.52401        1.81471       -2.53110
F          6.98566       -0.32389       -2.43757
C          6.02751       -2.20341        2.07291
C          6.03777       -1.51482        3.45461
F          4.78617       -1.49214        3.98617
F          6.84102       -2.14367        4.36075
F          6.46785       -0.23782        3.35527
F          5.56642       -3.50730        2.32319
F          7.35645       -2.34042        1.70703
H          0.27001        0.49061       -0.23851
H          0.99801        0.91378        1.15741
H          2.63649        0.38996       -0.61026
H          1.93131       -1.23776       -0.61018
H          2.59426       -1.52107        1.79905
H          3.24898        0.12663        1.81312
H          5.02616       -2.31243       -0.72227
