73

C          5.70685        8.26278        4.15505
C          5.29018        7.64849        2.81647
C          6.48211        7.19841        1.96668
C          6.09456        6.58476        0.61783
C          7.30417        6.14637       -0.21221
C          6.95756        5.52048       -1.56681
C          8.20215        5.09141       -2.35482
C          7.91144        4.45024       -3.71948
Si         9.45246        3.88548       -4.69193
C          8.97141        3.18023       -6.36244
C          8.56210        4.02482       -7.41469
C          8.26472        3.52050       -8.68473
C          8.35779        2.14606       -8.98260
C          8.73596        1.30591       -7.91609
C          9.03791        1.80133       -6.64331
Ga         8.20195        1.33126      -10.82726
C          7.55321        2.75208      -12.26136
C          6.07434        2.88086      -12.71993
C          5.06498        3.36156      -11.62285
C          3.54293        3.20579      -11.98615
F          3.23970        3.82693      -13.14562
F          3.17642        1.91683      -12.08129
F          2.79889        3.77632      -11.00565
F          5.25589        2.66730      -10.47028
F          5.26475        4.68664      -11.36709
F          5.94449        3.76363      -13.77380
F          5.65352        1.65926      -13.17382
F          7.94611        4.05873      -11.92100
F          8.22414        2.48075      -13.46078
C          7.04044       -0.31638      -10.86170
C          6.04660       -0.59407       -9.90760
C          5.26237       -1.75404       -9.96777
C          5.43656       -2.69247      -10.99306
C          6.43095       -2.43409      -11.94995
C          7.21182       -1.27768      -11.87777
C          4.58828       -3.93956      -11.07116
C         10.59647        5.37937       -4.93484
C         10.37415        2.58339       -3.66751
H          4.83627        8.57842        4.74751
H          6.34571        9.14604        4.00399
H          6.27911        7.54342        4.76023
H          4.69187        8.37805        2.24487
H          4.62568        6.78633        2.99564
H          7.07929        6.46699        2.54013
H          7.14971        8.06158        1.79452
H          5.49826        7.31408        0.04171
H          5.43177        5.71781        0.78701
H          7.90085        5.42503        0.37443
H          7.96376        7.01721       -0.37619
H          6.37241        6.23746       -2.16903
H          6.30191        4.64523       -1.41449
H          8.78269        4.38959       -1.73020
H          8.85063        5.97461       -2.49021
H          7.34622        5.15291       -4.35615
H          7.25471        3.57182       -3.59409
H          8.49038        5.10574       -7.25015
H          7.97679        4.22495       -9.46863
H          8.81904        0.22706       -8.08578
H          9.34783        1.09928       -5.86268
H          9.65106        0.98771      -11.39796
H          5.87242        0.11160       -9.08959
H          4.49567       -1.93197       -9.20635
H          6.59314       -3.14955      -12.76337
H          7.98040       -1.11738      -12.64027
H          3.84105       -3.96322      -10.26571
H          5.19991       -4.85230      -10.98795
H          4.05017       -4.00182      -12.03025
H         10.10677        6.16192       -5.53225
H         11.50686        5.07813       -5.47255
H         10.89898        5.82555       -3.97617
H          9.73754        1.71331       -3.45132
H         10.70902        2.99981       -2.70623
H         11.26256        2.22151       -4.20429
