22

F          1.76462        1.12796        0.66737
C          3.01427        1.11721        0.07012
O          3.14615        1.93002       -0.94529
C          2.12816        1.73559       -2.14418
N          2.56761        2.45501       -3.24213
S          1.91502        3.86587       -3.51484
O          2.08685        4.21685       -4.91588
O          0.60615        4.10483       -2.89799
C          3.08857        5.18608       -2.66593
C          2.57607        6.00468       -1.42863
C          2.34166        5.27219       -0.06043
F          3.48294        4.73355        0.40430
F          1.92702        6.20223        0.84657
F          1.40145        4.32435       -0.12726
F          3.52638        6.96561       -1.14875
F          1.43064        6.65717       -1.75505
F          4.26313        4.59192       -2.30975
F          3.38082        6.13957       -3.60247
F          3.91018        1.43238        1.05006
F          3.23416       -0.22246       -0.23259
H          1.16024        2.03422       -1.71290
H          2.18241        0.65457       -2.33135
