16

O          0.93848       -0.05164        0.00578
N          2.47401       -0.01037        0.10208
C          2.87549       -0.18222       -1.23575
C          4.41761       -0.21721       -1.29874
C          4.96908       -1.39909       -0.49261
C          4.92820       -0.24336       -2.74439
H          0.74334        0.05091        0.94766
H          2.53240        0.63554       -1.96079
H          2.50082       -1.13983       -1.73394
H          4.76981        0.71472       -0.81911
H          4.66596       -2.35076       -0.96394
H          4.53202       -1.37340        0.51496
H          6.07245       -1.38535       -0.43390
H          4.61523       -1.17278       -3.25000
H          6.02975       -0.19480       -2.78900
H          4.52115        0.60251       -3.32063
