71

C          3.45582       -0.58750       -4.92199
C          4.10821        0.51668       -4.08773
C          3.17231        1.12845       -3.00502
C          2.46133        0.11124       -2.10290
C          3.26166       -0.70152       -1.19599
C          3.30380       -0.38999        0.38266
C          2.07330       -0.57301        1.34621
C          1.65391       -2.02101        1.80230
F          1.25127       -2.80671        0.79610
F          2.65748       -2.64124        2.45732
F          0.61481       -1.89789        2.66997
F          2.40454        0.05856        2.52688
F          0.97584        0.04257        0.85242
F          4.32578       -1.10529        0.97062
F          3.64143        0.93595        0.50556
F          3.01118       -2.12377       -1.20704
F          4.62347       -0.59629       -1.48738
C          1.03321       -0.00578       -2.17849
C          0.20340        1.06937       -2.65235
C         -1.17750        0.97860       -2.73388
C         -1.89389       -0.18878       -2.36742
C         -1.08781       -1.26431       -1.91470
C          0.29254       -1.18705       -1.82688
Si        -3.74392       -0.25716       -2.38608
C         -4.41601        0.83494       -3.80751
C         -3.91712        0.41941       -5.19729
C         -4.35188        1.38478       -6.28376
C         -3.85423        1.09558       -7.74571
C         -4.22759       -0.25870       -8.46086
C         -5.73375       -0.65999       -8.74353
C         -6.62293        0.32012       -9.59699
C         -7.94386       -0.33067      -10.16074
F         -8.64249       -0.94001       -9.18467
F         -8.70951        0.64829      -10.68675
F         -7.67973       -1.22267      -11.13140
F         -6.99600        1.37359       -8.83426
F         -5.92010        0.77177      -10.66858
F         -5.66517       -1.84242       -9.42626
F         -6.35633       -0.89480       -7.56280
F         -3.58820       -0.24989       -9.66305
F         -3.71748       -1.28692       -7.72636
F         -4.27914        2.10270       -8.56605
F         -2.49064        1.11843       -7.72785
F         -5.72708        1.48913       -6.34377
F         -3.88272        2.65308       -6.01885
C         -4.38065       -2.03043       -2.62066
C         -4.54645        0.43614       -0.81024
C          3.89226        2.29020       -2.28918
H          4.15176       -0.97941       -5.67990
H          2.55958       -0.21852       -5.44496
H          3.13740       -1.42111       -4.28100
H          4.42411        1.34018       -4.75457
H          5.02573        0.13214       -3.61932
H          2.36190        1.58885       -3.58984
H          0.66094        2.02412       -2.91587
H         -1.72079        1.86590       -3.07851
H         -1.55918       -2.21325       -1.63682
H          0.83666       -2.07459       -1.51672
H         -4.10991        1.87184       -3.59750
H         -5.51708        0.82400       -3.77847
H         -4.29014       -0.58011       -5.46115
H         -2.81754        0.36741       -5.21507
H         -4.01512       -2.47525       -3.55732
H         -5.48074       -2.05755       -2.63200
H         -4.04220       -2.67861       -1.79928
H         -4.23604        1.47779       -0.64437
H         -4.22940       -0.14344        0.06874
H         -5.64618        0.40890       -0.85984
H          4.75552        1.93561       -1.70918
H          3.21261        2.80268       -1.59433
H          4.26101        3.02990       -3.02037
