26

N          0.59188       -0.58351       -0.36476
C          2.00514       -0.16902       -0.55947
C          2.97154       -1.34615       -0.50418
B          4.53967       -0.99838       -0.90439
C          5.27416        0.19770        0.01614
C          5.56120       -0.10534        1.45488
O          6.62531        0.00550        2.03930
O          4.47007       -0.56341        2.17229
C          5.48298       -2.32552       -0.84220
O          4.96952       -3.36147       -1.80189
C          5.66131       -4.47090       -1.92019
F          5.80673       -5.19375       -0.75171
F          5.03983       -5.30028       -2.80943
F          6.95149       -4.30167       -2.38828
H          0.00462        0.23773       -0.19856
H          0.53500       -1.14520        0.48857
H          2.31155        0.60425        0.17593
H          2.07865        0.30500       -1.55236
H          2.61512       -2.11128       -1.21583
H          2.85481       -1.85144        0.48647
H          4.53668       -0.56363       -2.06177
H          4.59462        1.06847       -0.00170
H          6.21890        0.52103       -0.44244
H          3.77481       -0.76414        1.51315
H          5.50454       -2.81774        0.14584
H          6.52293       -2.11626       -1.13931
