58

N          3.84071       -2.15801        0.77773
C          4.38941       -1.49223        1.97484
P          4.41310        0.46679        1.89464
C          3.02283        0.68456        3.25552
C          3.23778        0.38395        4.60877
C          2.25236        0.60599        5.57548
C          0.99204        1.13949        5.22637
C          0.77686        1.44164        3.86394
C          1.77396        1.21791        2.91008
Si        -0.28816        1.49056        6.54190
C          0.27727        2.97678        7.60585
C          0.63987        4.21030        6.77150
C          1.04776        5.41237        7.59187
F          2.14037        5.17626        8.37286
F          1.35672        6.48482        6.80273
F          0.05370        5.83275        8.43584
C         -1.96861        1.92032        5.77832
C         -0.51225        0.02683        7.72320
C          5.80746        0.51661        0.51407
C          5.36181        1.24417       -0.74871
C          6.50095        1.78025       -1.62752
C          6.03049        2.57578       -2.85004
C          7.17333        3.13391       -3.70400
C          6.69829        3.95680       -4.90417
H          4.46613       -1.94890       -0.00702
H          2.97594       -1.65965        0.53023
H          5.42859       -1.82821        2.12467
H          3.80540       -1.82079        2.85078
H          3.32712        0.40932        0.84102
H          5.43551        0.50320        2.98853
H          4.40128        1.96733        1.79382
H          4.21053       -0.02340        4.90821
H          2.46791        0.35588        6.62140
H         -0.18541        1.85700        3.54521
H          1.58960        1.46532        1.85701
H          1.15390        2.65982        8.19308
H         -0.51610        3.22430        8.32993
H         -0.20547        4.54097        6.14882
H          1.47198        3.98808        6.08697
H         -1.91498        2.80412        5.12665
H         -2.70924        2.12787        6.56508
H         -2.34648        1.08634        5.16996
H          0.44965       -0.28482        8.15413
H         -0.93157       -0.83881        7.19120
H         -1.18931        0.27991        8.55268
H          6.19327       -0.49105        0.27443
H          6.62939        1.07038        1.00117
H          4.71949        2.09485       -0.44336
H          4.71684        0.58739       -1.35845
H          7.13806        0.94085       -1.96147
H          7.15268        2.42376       -1.00874
H          5.38926        3.40941       -2.51228
H          5.38492        1.93639       -3.47944
H          7.80516        2.29946       -4.05470
H          7.82513        3.75725       -3.06748
H          6.08280        3.34882       -5.58478
H          7.54076        4.35894       -5.48623
H          6.08123        4.80855       -4.57912
