26

C          1.75103        1.23435        0.15921
C          2.52677       -0.01009       -0.23292
As         2.70437       -1.28331        1.40218
C          2.01856       -2.94787        0.35898
C          1.89255       -4.18032        1.24438
C          0.64671       -4.10149        2.13782
C          1.91034       -5.49478        0.44865
O          4.55358       -1.83281        0.81324
H          1.83537        2.05633       -0.57446
H          2.12710        1.62038        1.12579
H          0.67990        1.01710        0.29613
H          3.56888        0.20892       -0.49947
H          2.05439       -0.55997       -1.06109
H          1.23919       -0.85080        1.91883
H          3.37122       -0.01955        2.19384
H          2.91059       -2.18914        2.71013
H          2.75704       -3.09652       -0.44101
H          1.04872       -2.65963       -0.08081
H          2.77443       -4.18156        1.91649
H         -0.26982       -4.10251        1.52254
H          0.65346       -3.17511        2.72875
H          0.58913       -4.95583        2.83270
H          1.04626       -5.55406       -0.23436
H          1.87118       -6.37498        1.11543
H          2.82323       -5.56923       -0.16095
H          5.10815       -1.27608        1.38308
