33

C          7.25645        2.42192       -0.37033
S          6.48375        1.49838       -1.73058
C          5.99821       -0.00729       -0.79365
C          5.02383       -0.88529       -1.58202
B          5.57987       -1.52447       -3.00278
C          4.41435       -2.47601       -3.68841
C          3.16626       -1.73734       -4.18647
C          2.12211       -2.69100       -4.79643
C          0.87993       -2.01942       -5.33634
C         -0.19031       -2.99267       -5.92007
F          0.32263       -3.72511       -6.93914
F         -0.62997       -3.85572       -4.97156
F         -1.26910       -2.32759       -6.39855
F          0.22356       -1.29100       -4.36415
F          1.17598       -1.13876       -6.35730
C          6.94319       -2.41514       -2.76027
H          7.58246        3.39196       -0.77002
H          8.13702        1.89488        0.02794
H          6.54632        2.60054        0.45252
H          5.57070        0.35922        0.15793
H          6.92142       -0.56274       -0.55906
H          4.09341       -0.30430       -1.73050
H          4.74935       -1.71944       -0.90043
H          5.82926       -0.59339       -3.79765
H          4.09368       -3.26107       -2.96808
H          4.85131       -3.02690       -4.54630
H          3.46300       -0.98750       -4.93715
H          2.69812       -1.17987       -3.35960
H          1.79908       -3.42530       -4.04140
H          2.57237       -3.26120       -5.62450
H          7.79392       -1.82243       -2.37675
H          7.29741       -2.88671       -3.69562
H          6.78390       -3.24096       -2.03636
