68

C          8.71622       -5.96964       -0.01326
C          8.25962       -4.51366        0.10413
C          8.86815       -3.77961        1.30330
C          8.44280       -2.31190        1.40156
C          9.03738       -1.56539        2.59987
C          8.63373       -0.08900        2.65109
C          9.19468        0.68246        3.85269
C          8.78792        2.16342        3.85721
Si         9.34690        3.22515        5.33655
C          8.62903        4.94803        5.11716
C          7.25681        5.10985        4.83147
C          6.69753        6.37279        4.62860
C          7.47265        7.54658        4.71029
C          8.83590        7.38335        5.01649
C          9.40539        6.11843        5.21002
Ga         6.66876        9.34341        4.30291
S          4.67072        9.43020        5.82075
O          4.24015       10.81795        6.10571
O          3.62753        8.46825        5.40133
C          5.08652        8.77831        7.60702
F          6.14767        9.43695        8.14917
F          4.02789        8.96039        8.43403
F          5.38883        7.45673        7.61046
C          7.78811       10.97639        4.66061
C          7.93618       11.42834        6.11728
C          8.79874       12.68606        6.29324
C          8.90810       13.13951        7.74691
N          9.74363       14.35153        7.86818
C          8.71197        2.43507        6.93875
C         11.23955        3.29204        5.40142
H          8.26137       -6.46963       -0.88016
H          8.44411       -6.54522        0.88439
H          9.80907       -6.03426       -0.12627
H          7.15953       -4.47591        0.17771
H          8.51866       -3.97057       -0.82060
H          9.96974       -3.83676        1.24291
H          8.58910       -4.30706        2.23292
H          7.34095       -2.25459        1.45019
H          8.72972       -1.78973        0.47157
H         10.13889       -1.64287        2.56878
H          8.72484       -2.06536        3.53391
H          7.53213       -0.01217        2.66192
H          8.95932        0.40940        1.72095
H         10.29543        0.59313        3.85477
H          8.85151        0.19327        4.78109
H          7.68762        2.24059        3.80286
H          9.15634        2.65581        2.94033
H          6.60616        4.23137        4.76033
H          5.62884        6.44924        4.40914
H          9.48064        8.26426        5.10163
H         10.47455        6.04748        5.43354
H          5.79474        9.35530        2.98217
H          7.35164       11.79295        4.06218
H          8.78566       10.78016        4.22402
H          8.36411       10.61329        6.72646
H          6.93714       11.62259        6.54002
H          8.38473       13.51176        5.69069
H          9.81400       12.49323        5.89646
H          9.27631       12.29182        8.35964
H          7.90335       13.38727        8.12570
H         10.68526       14.14584        7.52657
H          9.85022       14.60618        8.85166
H          7.61332        2.39046        6.94435
H          9.01963        3.03286        7.80863
H          9.09593        1.41313        7.07581
H         11.65564        3.74316        4.48922
H         11.66600        2.28343        5.50541
H         11.58697        3.88752        6.25799
