27

C          3.42237        2.07317        1.29733
C          3.16752        0.83581        0.41894
Al         3.31263        1.14650       -1.58699
C          1.94265        2.54383       -2.17166
C          0.49064        2.14389       -1.89494
C         -0.52931        3.21650       -2.33755
C         -1.97750        2.86508       -2.07649
C         -3.00687        3.95932       -2.49418
F         -2.78845        5.11360       -1.81861
F         -2.91534        4.23144       -3.81912
F         -4.28114        3.57398       -2.24353
F         -2.35529        1.72194       -2.75258
F         -2.21406        2.62876       -0.73687
O          4.93318        1.78187       -2.04235
H          3.37328        1.87914        2.38719
H          2.69034        2.87190        1.08760
H          4.41585        2.50523        1.09248
H          2.16965        0.41502        0.65224
H          3.88272        0.03726        0.69541
H          3.02061       -0.28283       -2.38258
H          2.07554        2.73108       -3.25394
H          2.16132        3.50714       -1.67149
H          0.34696        1.94949       -0.81972
H          0.25456        1.19869       -2.41022
H         -0.42473        3.40893       -3.41664
H         -0.31871        4.16534       -1.81974
H          5.56258        1.09470       -2.29215
