38

C          2.31574        0.68184       -0.62059
C          0.87422        0.35772       -0.30907
C          0.39194       -0.95865       -0.34802
C         -0.94933       -1.25226       -0.08166
C         -1.88439       -0.26423        0.29059
C         -1.36873        1.05458        0.35108
C         -0.04246        1.36321        0.03541
Ta        -4.04478       -0.49044        0.68713
C         -5.41015       -2.15013        0.19120
C         -5.00789       -3.50733        0.11471
C         -5.89380       -4.53910       -0.19302
C         -7.24747       -4.27857       -0.46086
C         -7.67075       -2.95149       -0.40431
C         -6.77642       -1.91661       -0.08299
C         -9.10181       -2.60324       -0.69507
F         -9.89455       -3.69473       -0.90485
F         -9.68730       -1.89625        0.32327
F         -9.23673       -1.81588       -1.81058
C         -5.42855       -5.96554       -0.23898
F         -4.07750       -6.10022       -0.17116
F         -5.94009       -6.71545        0.79342
F         -5.82459       -6.60871       -1.38520
N         -4.93025        1.24857        0.32650
H          2.88407       -0.23076       -0.85088
H          2.81570        1.17852        0.22717
H          2.40815        1.35820       -1.48616
H          1.07820       -1.76902       -0.61736
H         -1.27890       -2.29142       -0.18454
H         -2.01402        1.87937        0.67862
H          0.29384        2.40522        0.08131
H         -4.75139       -1.25948        2.13819
H         -3.08975       -0.38914        2.19375
H         -3.63079       -1.23265       -0.88765
H         -3.96017       -3.76593        0.28695
H         -7.93784       -5.08137       -0.71179
H         -7.17865       -0.89901       -0.04887
H         -4.45334        2.06132       -0.05852
H         -5.92581        1.44022        0.41695
