29

C          3.69263        0.19153       -1.13768
C          2.91912        0.29209        0.18202
Nb         3.36935        2.04491        1.36613
S          1.48735        2.12399        2.99285
O          1.30090        0.74984        3.48518
O          1.36149        3.20969        3.96206
F          0.07353        2.31445        2.04167
C          5.52219        2.18234        1.77977
C          6.21425        0.96341        1.61821
C          7.60868        0.87303        1.73701
C          8.37961        1.99394        2.06436
C          7.70108        3.21122        2.25421
C          6.31717        3.30135        2.10634
C          9.87678        1.90035        2.23622
H          3.28208       -0.58070       -1.81201
H          4.75138       -0.05498       -0.96662
H          3.67270        1.14016       -1.69783
H          2.98544       -0.62863        0.78638
H          1.83971        0.48009        0.00110
H          3.77535        1.90747        3.07546
H          2.32754        3.39246        0.91715
H          4.05301        3.35254        0.41238
H          5.66433        0.04119        1.39473
H          8.10249       -0.09262        1.58492
H          8.27595        4.10863        2.50778
H          5.83954        4.27690        2.23683
H         10.27831        0.99480        1.75890
H         10.16330        1.86386        3.30094
H         10.38882        2.77018        1.79696
