63

O          0.49302        0.16542       -0.67508
C          1.67224        0.25290       -0.26812
O          2.19381        0.75578        0.73485
C          2.75924       -0.42927       -1.31998
C          2.54116       -1.91707       -1.46545
C          1.25580       -2.46795       -1.64028
C          1.08999       -3.84210       -1.79012
C          2.18296       -4.73300       -1.77028
C          3.45816       -4.17270       -1.57214
C          3.63569       -2.79700       -1.42369
Si         1.87911       -6.56932       -1.94806
C          0.70818       -7.13210       -0.55284
C          1.17743       -6.70268        0.84216
C          0.29327       -7.19859        1.96538
F         -0.99427       -6.76653        1.85434
F          0.23872       -8.56667        2.02036
F          0.74277       -6.78433        3.18563
C          1.02463       -6.96215       -3.58825
C          3.49028       -7.55282       -1.82473
C          2.68283        0.35749       -2.60632
C          3.43128        1.54374       -2.72232
C          3.32809        2.34277       -3.85774
C          2.48412        1.99595       -4.93299
C          1.74952        0.80117       -4.80822
C          1.84374       -0.00056       -3.67276
Si         2.21749        3.17339       -6.35916
C          1.11938        4.60377       -5.73937
C         -0.12506        4.11866       -4.98492
C         -1.06737        5.23065       -4.58038
F         -0.47573        6.15969       -3.77711
F         -1.55965        5.91524       -5.66242
F         -2.15095        4.75695       -3.90296
C          3.84009        3.91920       -6.97958
C          1.33824        2.32165       -7.80210
F          4.06601       -0.24446       -0.80182
H          0.40229       -1.78918       -1.60796
H          0.07310       -4.22752       -1.91693
H          4.34049       -4.81728       -1.53399
H          4.63343       -2.38928       -1.26760
H          0.60122       -8.22775       -0.60466
H         -0.28922       -6.71032       -0.75371
H          1.21563       -5.60598        0.92219
H          2.18979       -7.07324        1.06411
H          0.10049       -6.37629       -3.69219
H          0.76444       -8.02805       -3.66422
H          1.67758       -6.70529       -4.43407
H          3.99851       -7.38733       -0.86432
H          4.18867       -7.26791       -2.62412
H          3.28919       -8.62971       -1.91963
H          4.08168        1.83510       -1.89837
H          3.91579        3.26488       -3.89751
H          1.08190        0.48222       -5.61305
H          1.25448       -0.91475       -3.61196
H          0.83121        5.23042       -6.59922
H          1.72908        5.23777       -5.07632
H          0.15491        3.58063       -4.06705
H         -0.72266        3.41885       -5.58914
H          4.38748        4.41455       -6.16540
H          3.65549        4.66661       -7.76504
H          4.49227        3.13828       -7.39456
H          0.34739        1.94136       -7.51730
H          1.92752        1.47128       -8.17265
H          1.19913        3.02879       -8.63268
