37

N          1.69908        0.50144        5.52164
C          2.96566        0.91850        4.87937
C          2.75603        1.17802        3.39314
C          4.04342        1.53631        2.61830
C          5.13271        0.48465        2.52093
S          4.79059       -0.92780        1.77331
O          3.61787       -0.86986        0.90124
O          5.96274       -1.71758        1.38404
F          4.13448       -2.06855        2.99837
C          6.51136        0.69849        3.09135
C          6.70775        0.51973        4.61844
C          6.47499       -0.89836        5.15952
C          7.39396       -1.96147        4.52979
N          7.56283       -3.17056        5.33299
C          6.62277       -4.19669        5.37521
N          5.56941       -4.38777        4.67194
N          6.96419       -5.14946        6.37485
H          1.88927        0.21311        6.48425
H          1.37451       -0.34630        5.04817
H          3.76865        0.17043        4.99152
H          3.30530        1.84431        5.37776
H          2.01513        1.98765        3.27046
H          2.32088        0.27708        2.93013
H          4.49994        2.42825        3.08621
H          3.72512        1.85286        1.60736
H          6.82850        1.73243        2.84765
H          7.21854        0.04062        2.56281
H          6.04070        1.21608        5.15440
H          7.74130        0.82999        4.87110
H          5.42871       -1.19738        5.00134
H          6.64793       -0.89112        6.25081
H          8.40186       -1.53646        4.38216
H          7.02724       -2.25002        3.53441
H          8.00826       -3.01153        6.23374
H          5.31589       -3.59573        4.06904
H          7.93931       -5.44051        6.31508
H          6.34713       -5.95271        6.27195
