14

O          1.58612        0.36083       -0.40612
Sb         3.62890        0.31147       -0.32582
C          3.47092        1.95025        1.35594
C          3.38557        3.40454        0.84425
F          2.28042        3.60520        0.09468
F          3.35094        4.32598        1.85802
F          4.47073        3.70871        0.08286
F          2.40308        1.77045        2.19964
F          4.61675        1.89624        2.13339
Br         3.25972       -1.57243        1.73619
H          1.30736       -0.21129        0.33119
H          3.67690       -1.05982       -1.39813
H          5.34618        0.28875        0.03335
H          3.71090        1.51601       -1.58195
