77

N          3.33789       -0.39932        2.77632
C          2.81884        0.88461        2.27525
C          3.89283        1.97438        2.34672
C          5.06591        1.80121        1.36324
C          6.19775        2.82012        1.59606
Ta         7.64504        2.79204       -0.08540
C          8.06467        0.67009       -0.38313
C          8.06760        0.08403       -1.67082
C          8.22801       -1.28756       -1.86603
C          8.38786       -2.13955       -0.76036
C          8.37555       -1.59457        0.53351
C          8.21362       -0.22148        0.70598
C          8.55515       -3.61406       -0.96943
C          9.97001       -4.12085       -1.45088
C         11.24696       -3.85813       -0.56462
C         11.42078       -4.52967        0.86107
C         11.35552       -6.09929        0.96649
C         11.96252       -6.68151        2.30073
F         11.45367       -6.06134        3.38104
F         11.65018       -7.99306        2.37451
F         13.30228       -6.57056        2.32342
F         10.06374       -6.50134        0.91094
F         12.04514       -6.66989       -0.05629
F         12.66377       -4.14821        1.28286
F         10.51066       -4.00663        1.71637
F         12.31759       -4.26016       -1.31191
F         11.36197       -2.52400       -0.35223
F          9.91112       -5.46942       -1.67445
F         10.23763       -3.51908       -2.64576
F          8.25568       -4.33442        0.16582
F          7.70214       -4.07075       -1.96113
C          8.64930        4.01188        1.45660
C          9.40564        3.38462        2.47655
C          9.88297        4.06747        3.59106
C          9.63598        5.44603        3.73005
C          8.91444        6.10760        2.72386
C          8.44080        5.39831        1.61896
C         10.11371        6.17625        4.94236
C         11.66771        6.38578        5.11276
C         12.48852        7.11501        3.98310
C         12.21921        8.63276        3.61904
C         12.34351        9.71497        4.75687
C         12.50619       11.19036        4.22419
F         11.56765       11.48763        3.30658
F         12.36707       12.03846        5.26637
F         13.72211       11.39014        3.68553
F         11.22982        9.69228        5.52587
F         13.42800        9.46285        5.53631
F         13.15229        8.94230        2.66770
F         10.99398        8.74602        3.05578
F         13.80307        7.03242        4.35026
F         12.33654        6.43192        2.82282
F         11.90713        7.06358        6.27903
F         12.24907        5.15682        5.23030
F          9.55184        7.43065        5.04619
F          9.76388        5.49769        6.10582
H          2.62898       -1.12937        2.70263
H          3.56498       -0.31389        3.76909
H          1.91549        1.23239        2.81891
H          2.51722        0.73268        1.22565
H          4.29312        2.00870        3.37669
H          3.41873        2.95554        2.17871
H          4.66308        1.88223        0.33586
H          5.44848        0.77355        1.45813
H          6.63184        2.67739        2.59922
H          5.79141        3.85254        1.59422
H          9.40915        2.60588       -0.19589
H          6.56464        3.34672       -1.43076
H          8.42673        4.13983       -0.93713
H          7.93701        0.71533       -2.55549
H          8.21384       -1.70387       -2.87440
H          8.47671       -2.24774        1.40079
H          8.19747        0.16180        1.73128
H          9.63050        2.31562        2.39928
H         10.44035        3.53195        4.36154
H          8.71518        7.17619        2.81277
H          7.88525        5.94816        0.85301
