20

O          1.84241        0.64560        0.62285
C          2.11922       -0.57233        0.19535
O          1.87033       -1.57798        0.85157
C          2.94589       -0.69210       -1.08281
C          4.11610       -1.44688       -0.88239
C          5.08153       -1.59849       -1.87179
C          4.87460       -0.99096       -3.11083
C          3.69973       -0.28206       -3.34443
C          2.70293       -0.11984       -2.36037
C          1.49939        0.74914       -2.70591
C          1.77829        2.28751       -2.33004
O          1.75204        3.12571       -3.22916
O          2.05405        2.44003       -1.09615
I          0.94818        0.61279       -4.86260
Br        -0.16391        0.13426       -1.79576
H          1.97142        1.38295       -0.13248
H          4.24167       -1.91516        0.09432
H          5.98248       -2.18297       -1.67556
H          5.61485       -1.08053       -3.90819
H          3.53253        0.15702       -4.32763
