13

C          1.12917       -0.09520        0.05546
C          2.28639        0.81403       -0.25093
S          3.22870        0.46876       -1.55121
O          2.50655       -0.17305       -2.65211
O          4.22761        1.49771       -1.84918
F          4.33261       -0.86310       -1.14114
C          2.89266        1.59442        0.88207
H          0.79061       -0.62188       -0.84619
H          0.27119        0.48641        0.44500
H          1.36056       -0.86246        0.82852
H          3.25612        0.95312        1.71639
H          2.14609        2.28263        1.32369
H          3.73864        2.20205        0.53584
