51

O          4.32525       -0.70525        1.22614
Nb         3.20313       -0.31384       -0.29298
C          4.27648       -0.70678       -2.17822
C          5.63963       -1.09173       -2.12239
C          6.40022       -1.32367       -3.27050
C          5.85118       -1.19018       -4.56396
C          4.48918       -0.81650       -4.63062
C          3.73681       -0.58642       -3.48116
Si         6.87680       -1.50244       -6.08376
C          7.23993       -3.37522       -6.25606
C          8.14841       -3.74678       -7.43234
C          8.42402       -5.22811       -7.56901
F          7.29180       -5.95782       -7.78171
F          9.25629       -5.48971       -8.62757
F          9.02857       -5.75568       -6.46708
C          5.97779       -0.93848       -7.65552
C          8.54534       -0.60237       -5.98333
C          1.93448        1.48482        0.29171
C          0.94181        1.30843        1.44660
C          0.26197        2.63903        1.84084
C         -0.69325        2.53656        3.00898
C         -1.37582        3.87667        3.42056
F         -0.45045        4.80251        3.77123
F         -2.10195        4.38381        2.39510
F         -2.21061        3.71199        4.47333
F         -1.72391        1.65643        2.75076
F         -0.05722        2.07931        4.14680
H          3.98588       -1.17614        2.00245
H          3.72531        1.14416       -1.15460
H          1.49936       -0.79224       -0.13078
H          2.73198       -1.85179       -1.05532
H          6.13117       -1.20740       -1.15002
H          7.45224       -1.60966       -3.14992
H          4.00542       -0.69959       -5.60630
H          2.68649       -0.29799       -3.60345
H          6.27282       -3.89448       -6.34397
H          7.68694       -3.71829       -5.31000
H          9.13237       -3.26142       -7.34711
H          7.71578       -3.42827       -8.39293
H          5.03625       -1.48785       -7.79886
H          6.59651       -1.09093       -8.55233
H          5.73277        0.13165       -7.59849
H          9.10598       -0.90919       -5.08830
H          8.38271        0.48231       -5.91050
H          9.18049       -0.79002       -6.86210
H          1.39582        1.82935       -0.61094
H          2.64027        2.30122        0.54083
H          1.45212        0.90613        2.33825
H          0.17398        0.57018        1.17321
H         -0.30077        3.03879        0.98301
H          1.02588        3.38766        2.10201
