27

S          1.11966        0.82962        0.14272
C          2.74489        0.09603       -0.35182
C          3.27983       -0.77730        0.78632
C          4.58563       -1.49941        0.42619
Al         5.45805       -2.43430        1.99681
C          4.46047       -4.07615        2.69314
C          4.53917       -4.21674        4.22334
C          5.96010       -4.39274        4.76785
C          2.99201       -4.10376        2.23789
I          7.85260       -3.24601        1.07788
H          0.90872        1.57337       -0.96939
H          3.44721        0.91126       -0.57500
H          2.59708       -0.50402       -1.26045
H          2.50013       -1.50778        1.05820
H          3.42457       -0.14203        1.67801
H          5.32739       -0.76714        0.05790
H          4.41485       -2.20353       -0.40774
H          5.74118       -1.34768        3.18631
H          4.96474       -4.95663        2.25058
H          3.91675       -5.07521        4.55868
H          4.08510       -3.32548        4.69629
H          6.45346       -5.26490        4.31186
H          5.96047       -4.53332        5.86056
H          6.58295       -3.51529        4.53986
H          2.42166       -3.25023        2.64305
H          2.46408       -5.01755        2.57907
H          2.89406       -4.06137        1.14208
