35

N          1.15007       -1.65694       -0.67312
C          2.50678       -1.12341       -0.69592
Sb         2.62527        1.14170       -0.60596
C          2.45652        3.42273       -0.77713
C          1.47335        3.92518        0.08780
C          1.16570        5.28479        0.16798
C          1.87193        6.20026       -0.62063
C          2.86558        5.73568       -1.47572
C          3.15253        4.35761       -1.57764
C          4.23626        4.04166       -2.57971
O          5.12399        4.84250       -2.84881
O          4.20214        2.86602       -3.23226
C          4.90518        1.11347       -0.62766
C          5.50652        0.24261       -1.74365
C          6.93943        0.63993       -2.08903
O          7.93313        0.06598       -1.63278
N          7.04187        1.69491       -2.95533
H          0.67914       -1.34690        0.18158
H          0.61172       -1.22330       -1.43003
H          3.00377       -1.41850       -1.63102
H          3.08538       -1.52027        0.15190
H          2.72401        1.16553       -2.54303
H          2.54830        1.27475        1.18389
H          0.81867        1.12997       -0.73969
H          0.92281        3.21717        0.71835
H          0.38030        5.63200        0.84445
H          1.64996        7.26823       -0.56868
H          3.44673        6.42477       -2.09132
H          3.46810        2.20017       -2.91435
H          5.20479        0.75050        0.36576
H          5.22746        2.16050       -0.71283
H          4.88766        0.31238       -2.65580
H          5.53270       -0.81183       -1.43897
H          6.21968        2.24444       -3.20433
H          7.95606        2.11759       -3.06815
