9

In         1.16561       -0.21196       -0.62755
I         -0.02715        2.45034       -0.76324
O          0.16466       -1.15184        0.95008
C          3.24287        0.20217        0.01827
H          0.74713       -1.05469       -2.11305
H          0.16100       -0.53609        1.69853
H          3.27592        0.18744        1.11653
H          3.56270        1.19126       -0.33374
H          3.93803       -0.55960       -0.36369
