11

N          0.77801       -2.12117       -1.02590
C          0.44795       -1.36379        0.15628
C         -1.09238       -1.35922        0.23159
N         -1.58300       -2.75148        0.31998
I          2.87534       -2.38082       -1.12949
H          0.77368       -0.28602        0.16465
H          0.82158       -1.78956        1.12549
H         -1.47504       -0.82929       -0.66389
H         -1.41122       -0.79037        1.12491
H         -0.92810       -3.26880       -0.28777
H         -2.50444       -2.82447       -0.11514
