12

O          1.08541        0.03787        0.11126
C          2.47538       -0.05207        0.08532
O          2.98776       -1.14068        0.11800
C          3.14413        1.31591        0.01255
N          4.57059        1.23592        0.00405
S          5.27276        2.62357       -0.05233
O          5.22279        3.34359       -1.32826
O          5.14655        3.47972        1.13164
F          6.81897        2.08766        0.02107
H          0.85545        0.98432        0.08186
H          2.72476        1.89342        0.87545
H          2.70785        1.80187       -0.89749
