52

C          0.83494        0.12957        0.24810
C          2.36423        0.06302        0.21377
C          2.92002       -0.45433       -1.11733
C          4.45023       -0.49227       -1.17873
C          4.99764       -1.00049       -2.51599
C          6.52661       -0.98624       -2.61068
C          7.05206       -1.50182       -3.95582
C          8.58071       -1.47177       -4.09405
Si         9.24320       -2.16572       -5.74270
C          8.64701       -3.92106       -5.98106
C          7.32148       -4.18682       -6.39360
C          6.82393       -5.48430       -6.47854
C          7.63585       -6.59230       -6.15981
C          8.95983       -6.34024       -5.76582
C          9.45100       -5.03693       -5.67513
C          7.10064       -7.99967       -6.27729
C          6.72657       -8.32875       -7.82147
O          7.44543       -9.21904       -8.34493
O          5.76580       -7.67818       -8.29070
N          8.03205       -9.00810       -5.74124
C          8.63550       -1.04637       -7.14690
C         11.13460       -2.07153       -5.68100
H          0.46508        0.50357        1.21366
H          0.38912       -0.86301        0.08337
H          0.44780        0.79624       -0.53739
H          2.72457       -0.58220        1.03317
H          2.78100        1.06498        0.41505
H          2.53984        0.17848       -1.93924
H          2.52082       -1.46581       -1.31036
H          4.83446       -1.12744       -0.36084
H          4.84616        0.52081       -0.98390
H          4.57980       -0.38774       -3.33482
H          4.63218       -2.02668       -2.69512
H          6.95287       -1.59920       -1.79664
H          6.89530        0.04168       -2.44019
H          6.59308       -0.90588       -4.76471
H          6.69314       -2.53323       -4.10694
H          9.03933       -2.06492       -3.28318
H          8.95569       -0.43932       -3.96858
H          6.65664       -3.35902       -6.65913
H          5.80862       -5.67102       -6.83155
H          9.58468       -7.19898       -5.51612
H         10.48772       -4.89169       -5.35609
H          6.13162       -8.03971       -5.75382
H          8.29809       -9.53845       -6.58941
H          7.50598       -9.66521       -5.16497
H          7.54003       -1.06260       -7.23328
H          9.04574       -1.38263       -8.10952
H          8.94653       -0.00372       -6.98326
H         11.53945       -2.64105       -4.83249
H         11.46374       -1.02747       -5.57252
H         11.57906       -2.47682       -6.60088
