21

S          2.21402       -1.51938        0.82896
B          3.01026       -0.11804       -0.14631
S          4.11717        0.92337        1.05733
O          4.86313        0.08405        1.99649
O          4.79267        2.04398        0.40963
C          2.86028        1.83147        2.28970
C          1.63379        2.57867        1.68305
C          0.92448        3.60918        2.63644
F          0.59247        3.04317        3.81516
F          1.70149        4.68156        2.87915
F         -0.21604        4.05067        2.05115
F          2.01239        3.27720        0.57866
F          0.68470        1.67057        1.32470
F          2.41712        0.95985        3.22949
F          3.65275        2.75399        2.91566
S          4.06329       -0.74859       -1.64878
O          3.22030       -1.56511       -2.50578
O          4.93245        0.23732       -2.26022
F          5.09586       -1.82874       -0.94596
H          1.02683       -1.43914        0.18707
H          2.25242        0.65584       -0.67249
