63

C          0.69183       -0.26223        0.27073
C          2.21118       -0.15972        0.11178
C          2.80495        1.12227        0.70686
C          4.32697        1.21826        0.56115
C          4.93552        2.49203        1.15729
C          6.46021        2.55950        1.01964
C          7.08873        3.82345        1.61929
C          8.61834        3.87232        1.48955
Si         9.42352        5.47285        2.13511
C          8.69798        6.94153        1.23239
C          8.02803        7.99914        1.87710
C          7.49705        9.06790        1.14748
C          7.60216        9.16607       -0.25654
C          8.26338        8.08835       -0.88551
C          8.79408        7.00986       -0.17304
Al         6.92548       10.81182       -1.26393
C          8.25867       12.35386       -1.04146
C          9.19861       12.36576        0.17975
C         10.36725       11.38726       -0.00561
C          9.73655       13.77260        0.50411
C          6.68304       10.36682       -3.22365
C          9.14571        5.59479        4.00582
C         11.28705        5.34524        1.81208
H          0.29873       -1.19054       -0.16802
H          0.18184        0.57975       -0.22094
H          0.39999       -0.24650        1.33189
H          2.47381       -0.21663       -0.95842
H          2.69057       -1.03387        0.58503
H          2.53520        1.18553        1.77636
H          2.33466        1.99872        0.22711
H          4.59359        1.15583       -0.50888
H          4.79237        0.33642        1.03761
H          4.66195        2.56195        2.22526
H          4.48553        3.37612        0.67322
H          6.73241        2.49709       -0.04904
H          6.90845        1.66858        1.49636
H          6.80130        3.89417        2.68345
H          6.65425        4.71304        1.13301
H          8.90141        3.77082        0.42672
H          9.07580        3.00958        2.00697
H          7.91696        7.99073        2.96655
H          6.97698        9.86041        1.69723
H          8.37442        8.09285       -1.97540
H          9.29895        6.20660       -0.72343
H          5.50443       11.24207       -0.53735
H          7.62795       13.26371       -1.01684
H          8.87200       12.45123       -1.95962
H          8.63240       12.02923        1.07022
H         10.97316       11.68106       -0.88019
H         10.00686       10.36521       -0.17802
H         11.03254       11.37087        0.87334
H         10.31574       14.17059       -0.34633
H         10.39648       13.77374        1.39033
H          8.91055       14.47424        0.69611
H          7.63749       10.10497       -3.71357
H          6.26916       11.22403       -3.78192
H          5.99468        9.51939       -3.38209
H          8.07667        5.64460        4.25517
H          9.62796        6.49183        4.41929
H          9.57190        4.71675        4.51328
H         11.48964        5.29861        0.73253
H         11.72053        4.44925        2.28112
H         11.80725        6.22887        2.20796
