38

C          1.43830       -1.28898       -0.76958
C          2.72706       -0.69874       -0.19091
C          3.29834        0.45348       -1.02216
C          4.61501        1.03644       -0.46077
C          5.19361        2.18581       -1.25918
C          4.67093        3.49560       -1.12142
C          3.68227        3.84185       -0.13074
C          3.19312        5.13449        0.00769
C          3.62135        6.19342       -0.81098
C          4.58533        5.88093       -1.78687
C          5.09536        4.60008       -1.94595
C          5.05256        6.99345       -2.68037
F          5.54582        8.06238       -1.97301
F          6.03319        6.63071       -3.55174
F          4.03466        7.50951       -3.44871
C          2.18330        5.44241        1.07432
F          1.66769        4.33652        1.68500
F          2.70321        6.21924        2.08302
F          1.10762        6.14733        0.59477
C          6.00223        1.79871       -2.47589
C          7.53027        1.83748       -2.25400
O          8.36624        1.50716       -3.07785
O          7.85187        2.27755       -1.02400
H          1.04832       -2.11237       -0.15199
H          1.60507       -1.68252       -1.78408
H          0.65085       -0.52330       -0.84120
H          3.48832       -1.49369       -0.10068
H          2.53967       -0.34382        0.83737
H          2.55142        1.26194       -1.09587
H          3.47252        0.10662       -2.05611
H          5.35507        0.21624       -0.40679
H          4.44221        1.33170        0.58991
H          3.29220        3.06932        0.52897
H          3.22628        7.20053       -0.69862
H          5.85518        4.43923       -2.70865
H          5.80329        2.42705       -3.36115
H          5.77621        0.76936       -2.80413
H          6.91558        2.44619       -0.63325
