77

N          1.00452       -0.08026        1.78701
C          2.29030       -0.18643        1.15338
C          2.89214        0.99308        0.64134
C          2.49021        2.30512        1.08952
C          3.01611        3.46993        0.56801
C          3.97567        3.44442       -0.47244
C          4.37366        2.17026       -0.95635
C          3.86171        1.00487       -0.42671
C          4.52937        4.69542       -1.01854
C          5.60418        5.47124       -0.16303
C          6.95508        4.76038        0.22614
C          8.01845        4.34274       -0.87224
C          8.58676        5.45059       -1.83625
C          9.91273        5.03555       -2.58316
F          9.78429        3.84163       -3.19039
F         10.18068        5.96509       -3.52717
F         10.96237        4.98578       -1.74274
F          7.67256        5.73741       -2.79181
F          8.87584        6.58273       -1.14051
F          9.08415        3.84713       -0.16691
F          7.51875        3.33764       -1.62721
F          7.60639        5.61161        1.07955
F          6.68119        3.62208        0.90961
F          5.95751        6.65136       -0.77960
F          5.02651        5.80495        1.03019
F          5.11597        4.51656       -2.26304
F          3.53530        5.67530       -1.18694
C          2.81330       -1.52233        1.08054
C          1.96964       -2.65173        1.33141
C          2.45661       -3.95132        1.34070
C          3.82276       -4.25526        1.12712
C          4.66840       -3.13601        0.90527
C          4.19690       -1.83310        0.88071
Si         4.49816       -5.98561        1.22138
C          5.72365       -6.33674       -0.19855
C          5.15081       -6.24644       -1.62045
C          6.16676       -6.60288       -2.71328
C          5.60059       -6.54631       -4.13551
C          6.59730       -6.99382       -5.20932
C          6.03437       -6.95759       -6.63309
C          7.01940       -7.44883       -7.69837
C          6.44642       -7.41374       -9.11711
C          5.46048       -6.28009        2.83608
C          3.09215       -7.26059        1.15158
H          0.59423        0.84064        1.65626
H          1.02536       -0.29039        2.78850
H          1.77252        2.39470        1.90755
H          2.68311        4.42938        0.96824
H          5.07548        2.10904       -1.78910
H          4.15603        0.05941       -0.88028
H          0.90649       -2.47099        1.49387
H          1.74441       -4.76409        1.51703
H          5.74396       -3.29030        0.76354
H          4.91218       -1.02037        0.75490
H          6.15245       -7.34226       -0.03177
H          6.57049       -5.63464       -0.09756
H          4.76253       -5.22909       -1.79434
H          4.28057       -6.91949       -1.71668
H          6.55921       -7.61802       -2.52027
H          7.03506       -5.92465       -2.63690
H          5.25935       -5.51960       -4.35415
H          4.69921       -7.18242       -4.19254
H          6.93773       -8.01979       -4.98072
H          7.49951       -6.35879       -5.15841
H          5.71868       -5.92774       -6.87607
H          5.11744       -7.57213       -6.67781
H          7.33347       -8.47780       -7.45279
H          7.93545       -6.83542       -7.65536
H          5.54827       -8.04471       -9.19810
H          7.17417       -7.77331       -9.85868
H          6.15625       -6.39154       -9.40298
H          6.28479       -5.55842        2.93356
H          5.88828       -7.29372        2.88179
H          4.80295       -6.14592        3.70720
H          2.50245       -7.16430        0.22887
H          2.40309       -7.13683        1.99958
H          3.49202       -8.28486        1.19495
