12

C          1.02906        0.14208        0.02217
Al         2.80906       -0.71100        0.21641
S          4.02532        0.15425       -1.74324
O          3.92393        1.60779       -1.90000
O          5.30487       -0.46452       -2.08728
F          2.97950       -0.43056       -2.97161
S          4.06290       -0.04126        1.98801
H          0.53692       -0.18762       -0.90549
H          1.09723        1.23944       -0.01177
H          0.37416       -0.12779        0.86622
H          2.95099       -2.30755        0.07859
H          3.70499        1.26075        1.89058
