26

C          1.13223       -0.04628        0.05974
B          2.65270        0.57251       -0.02748
C          3.48930       -0.01239        1.25727
C          4.97353        0.40850        1.51840
C          5.29057        1.93992        1.58142
F          5.18743        2.53561        0.38070
F          4.49951        2.58976        2.45819
F          6.58188        2.11400        1.99980
F          5.42152       -0.10581        2.71965
F          5.79256       -0.10608        0.54624
F          2.84946        0.28882        2.47495
F          3.57949       -1.42375        1.26058
C          3.38903        0.23038       -1.46033
C          2.66336        0.81921       -2.67796
C          3.35496        0.54431       -4.01955
H          0.64836        0.14441        1.03195
H          1.10991       -1.13985       -0.10227
H          0.47779        0.40198       -0.70717
H          2.61765        1.79901        0.14206
H          3.46707       -0.86724       -1.60043
H          4.43020        0.60225       -1.48388
H          2.56098        1.91068       -2.53974
H          1.63238        0.42844       -2.72169
H          4.37383        0.96442       -4.03065
H          2.80482        0.97603       -4.87322
H          3.45087       -0.53934       -4.19696
