27

N          5.13176        2.62139       -0.40809
C          4.72829        1.21008       -0.27031
C          5.04170        0.69242        1.13210
C          4.59689       -0.76401        1.29214
C          5.09919       -1.59634        2.48148
S          4.50405       -0.74372        4.03118
O          5.36211        0.40004        4.33357
O          3.06898       -0.52791        3.93050
C          4.76378       -1.93151        5.55976
C          5.27498       -1.13267        6.81206
F          4.46433       -0.09498        7.09978
F          5.26775       -1.96631        7.89177
F          6.53198       -0.68709        6.66228
F          3.58447       -2.47458        5.91321
F          5.67620       -2.89681        5.31642
C          4.53258       -3.09474        2.35385
O          3.79996       -3.42449        3.31185
O          4.86429       -3.67089        1.30300
I          7.30161       -1.64450        2.49517
H          5.02839        2.92370       -1.37799
H          6.12592        2.70937       -0.18630
H          5.21311        0.54025       -1.00937
H          3.64261        1.15259       -0.45575
H          4.56137        1.34122        1.87816
H          6.12915        0.76195        1.30630
H          4.90926       -1.36735        0.42433
H          3.49531       -0.81827        1.32882
