45

C          3.88019       -0.05710        3.23341
C          3.77800       -0.20250        1.71209
C          4.41371       -1.49091        1.16644
C          4.33662       -1.65028       -0.35790
Al         5.15870       -3.30861       -1.17569
C          3.82490       -4.86970       -0.65940
C          4.15232       -6.31731       -1.10043
C          3.12973       -7.46918       -0.81678
F          2.84330       -7.57929        0.49774
F          1.97236       -7.29148       -1.48808
F          3.64752       -8.66607       -1.21769
F          4.35451       -6.33201       -2.45696
F          5.32294       -6.70468       -0.49517
F          3.63995       -4.93713        0.73823
F          2.54154       -4.59862       -1.17312
C          7.00036       -3.76275       -0.46118
C          8.04403       -2.68347       -0.78048
C          9.48751       -2.98653       -0.33208
C         10.12458       -4.15101       -1.08830
N         11.48799       -4.38232       -0.62074
C         12.30128       -5.34809       -1.18020
N         11.99634       -6.24378       -2.05778
N         13.62331       -5.29191       -0.68995
H          3.40719        0.86905        3.59563
H          4.93217       -0.04389        3.55915
H          3.39265       -0.90213        3.74382
H          4.25349        0.66555        1.22239
H          2.71734       -0.17553        1.40698
H          3.93022       -2.35343        1.65823
H          5.46953       -1.52298        1.49546
H          4.81633       -0.77465       -0.83841
H          3.27807       -1.60485       -0.67677
H          5.18187       -3.22047       -2.80858
H          7.30020       -4.72770       -0.90630
H          6.96888       -3.93206        0.63145
H          7.74553       -1.73075       -0.30988
H          8.05456       -2.48011       -1.86771
H          9.49517       -3.21611        0.74727
H         10.12069       -2.08926       -0.47683
H         10.10783       -3.93697       -2.17541
H          9.53600       -5.06722       -0.92900
H         11.97374       -3.55052       -0.29659
H         11.04836       -6.09873       -2.41505
H         13.67000       -5.19537        0.32254
H         14.13346       -6.11476       -1.00265
