36

C          2.79506        0.46288       -1.79190
C          1.51091        0.19454       -1.04326
C          0.78922       -0.99151       -1.24054
C         -0.41194       -1.22501       -0.56371
C         -0.93151       -0.29350        0.33975
C         -0.21202        0.89183        0.53153
C          0.98652        1.13581       -0.14272
P         -2.52079       -0.65264        1.32107
C         -4.12332       -1.01689        2.31736
C         -4.43101       -0.29158        3.47042
C         -5.56050       -0.59718        4.24091
C         -6.42276       -1.62956        3.86081
C         -6.12627       -2.35210        2.70111
C         -4.99101       -2.04566        1.94041
C         -7.06210       -3.43359        2.24131
F         -7.91176       -3.00495        1.25321
F         -6.40678       -4.51438        1.72775
F         -7.86383       -3.90789        3.24344
C         -5.86010        0.21621        5.46760
F         -4.76120        0.39626        6.25910
F         -6.31109        1.47483        5.16286
F         -6.81990       -0.34454        6.26321
F         -3.48867        0.19592        0.12862
H          3.17492       -0.45062       -2.27092
H          3.58260        0.84552       -1.12475
H          2.65315        1.21517       -2.58554
H          1.17682       -1.74199       -1.93739
H         -0.96433       -2.15517       -0.73706
H         -0.60829        1.63763        1.22934
H          1.52624        2.07337        0.02738
H         -2.73633       -1.88556        0.55588
H         -1.75153       -1.37250        2.34735
H         -2.37940        0.61266        2.04972
H         -3.76393        0.52462        3.76811
H         -7.30060       -1.86890        4.45700
H         -4.76318       -2.61653        1.03494
