19

C          0.95655       -0.11480        0.07193
C          2.48834       -0.09133        0.04657
C          3.07329        0.87284       -0.99258
C          4.60564        0.90265       -1.02437
C          5.18953        1.86365       -2.05938
C          6.76169        1.92286       -2.12348
O          7.38899        1.17662       -1.32035
O          7.21868        2.72330       -2.98539
H          0.56531       -0.81480        0.82639
H          0.54796       -0.41691       -0.90520
H          0.54805        0.88220        0.30019
H          2.86979       -1.10820       -0.15038
H          2.86986        0.18104        1.04585
H          2.68821        1.89113       -0.79565
H          2.68841        0.60014       -1.99333
H          4.99642       -0.11034       -1.21788
H          4.99629        1.17056       -0.02844
H          4.83101        2.89243       -1.87601
H          4.83107        1.60405       -3.07170
