16

Ta         1.18183        0.61720        0.06223
C          0.41993        2.66325       -0.50405
C          0.92200        3.34496       -1.73605
O          1.37769        4.47935       -1.77805
O          0.85675        2.61225       -2.89278
Cl         0.08181       -1.39323        0.65674
C          3.15909       -0.17142       -0.37010
H          0.60051        0.51255       -1.69215
H          0.47033        1.19433        1.59443
H          2.29708        1.68582        0.93489
H          0.46198        3.37124        0.32704
H         -0.63077        2.34974       -0.67447
H          0.66799        1.67564       -2.59154
H          3.05161       -1.04953       -1.03558
H          3.75657       -0.46335        0.50679
H          3.72750        0.60540       -0.91137
