29

C          1.80407        0.79251        0.16647
C          3.02374       -0.13301        0.17644
C          2.98734       -1.24388       -0.88693
Al         2.98867       -0.54763       -2.78759
S          0.55713       -0.58108       -3.32319
O          0.12803       -1.99493       -3.34717
O         -0.31143        0.36512       -2.59203
C          0.27762       -0.10747       -5.24512
C          0.02318        1.36921       -5.66838
C          1.11272        2.43465       -5.30429
F          2.31732        2.09590       -5.80242
F          0.75627        3.62587       -5.85905
F          1.21618        2.61173       -3.98280
F         -0.10120        1.41651       -7.04342
F         -1.15485        1.79497       -5.14070
F          1.36495       -0.56625       -5.93841
F         -0.81610       -0.80460       -5.66903
C          4.17343       -2.21009       -0.71035
H          1.84745        1.52498        0.98733
H          0.86903        0.22264        0.26842
H          1.72807        1.35115       -0.77724
H          3.12399       -0.58688        1.18518
H          3.93722        0.47610        0.03952
H          2.05737       -1.82467       -0.74308
H          3.43174        0.99933       -2.96932
H          3.57122       -1.57456       -3.89117
H          5.14140       -1.70543       -0.87763
H          4.12729       -3.05067       -1.41826
H          4.21444       -2.63502        0.31183
