15

S          1.06447        0.38219       -0.06477
C          2.83531       -0.10719        0.13659
C          3.39531        0.47822        1.43751
C          4.86748        0.12107        1.63928
In         5.75251        0.87836        3.52659
I          4.21043       -0.40103        5.56438
Cl         8.00724       -0.14313        3.55165
H          0.86237       -0.19308       -1.27316
H          3.40075        0.26879       -0.72716
H          2.89888       -1.20375        0.15251
H          2.79648        0.11012        2.28736
H          3.26179        1.57338        1.41511
H          5.48662        0.50636        0.81258
H          5.00786       -0.97028        1.67222
H          5.92687        2.56552        3.96579
