31

C          2.85925       -0.78076        1.22977
C          2.98379       -0.49467       -0.26594
Ta         3.44208       -1.82983       -1.92148
C          1.93062       -2.82976       -3.29852
C          1.32722       -4.25125       -3.12789
F          0.65005       -4.39485       -1.96287
F          0.42435       -4.55139       -4.12573
F          2.27020       -5.22428       -3.17959
F          0.77341       -2.01512       -3.37934
F          2.43890       -2.87779       -4.62221
C          5.63258       -1.92475       -1.98677
C          6.51406       -2.75569       -1.05874
C          6.27220       -2.50042        0.43194
C          5.91883       -2.22772       -3.46652
H          2.50247        0.08705        1.81502
H          3.82606       -1.07956        1.66330
H          2.15921       -1.61073        1.40203
H          3.68091        0.35773       -0.44343
H          2.00435       -0.15415       -0.67184
H          2.30932       -2.74137       -0.91755
H          3.81010       -3.56460       -1.95508
H          3.04379       -0.71945       -3.29708
H          5.85419       -0.84118       -1.80834
H          7.58892       -2.58267       -1.28331
H          6.32547       -3.82102       -1.27518
H          6.40877       -1.43624        0.68196
H          6.96330       -3.08227        1.06201
H          5.24606       -2.77676        0.71528
H          5.81761       -3.30547       -3.66152
H          6.94113       -1.92433       -3.76602
H          5.22591       -1.70629       -4.15055
