26

C          1.16010       -1.26542       -2.76830
C          2.67039       -1.03000       -2.59708
C          3.12340       -0.97116       -1.13606
Nb         5.10949        0.00484       -1.06987
C          6.68988       -0.08396        0.47111
C          8.10789       -0.38436       -0.02664
C          9.27171       -0.22466        0.95685
O         10.45531       -0.27541        0.61389
N          8.91161       -0.05287        2.26683
Cl         5.96583       -1.94063       -2.29687
H          0.86568       -1.30384       -3.83048
H          0.58166       -0.46227       -2.28593
H          0.85834       -2.21465       -2.29847
H          2.92952       -0.08170       -3.10915
H          3.22978       -1.81472       -3.12942
H          3.17979       -1.97606       -0.68265
H          2.43114       -0.36041       -0.53973
H          4.34957        0.47273        0.46768
H          5.57770        1.14748       -2.36051
H          4.13261        1.50569       -1.06496
H          6.37291       -0.76517        1.27912
H          6.61334        0.94994        0.86715
H          8.37824        0.23930       -0.89432
H          8.16899       -1.41809       -0.40490
H          7.93671        0.10576        2.49706
H          9.63806        0.13349        2.94646
