29

I          3.44493       -1.41281        1.71035
Al         3.12256        0.07701       -0.30393
S          3.79835       -1.35364       -2.13379
O          5.17826       -1.84458       -2.02645
O          2.70610       -2.32766       -2.30004
C          3.87507       -0.42307       -3.85514
C          2.53293        0.11696       -4.41478
F          1.69498       -0.88496       -4.74093
F          1.93099        0.90874       -3.50388
F          2.74504        0.85744       -5.53657
F          4.73518        0.61937       -3.73046
F          4.38520       -1.30931       -4.75165
S          4.40554        2.12383       -0.20955
O          4.12590        2.88800       -1.43633
O          4.15350        2.76646        1.08961
C          6.37968        2.01671       -0.32166
C          7.07957        1.08005        0.70272
C          8.65314        1.16460        0.73760
C          9.36620        0.00558        1.52558
F          8.86881       -0.12059        2.77027
F          9.25030       -1.16932        0.88689
F         10.68556        0.29893        1.62756
F          9.15696        1.14581       -0.52538
F          9.01915        2.33354        1.33122
F          6.63828        1.37510        1.95491
F          6.72722       -0.20036        0.40086
F          6.69299        1.61987       -1.57934
F          6.81533        3.29417       -0.14325
H          1.68900        0.69459       -0.57788
