35

N          4.79594        0.46727       -2.78050
C          4.40484        0.26698       -1.36773
C          4.84296       -1.10938       -0.85666
C          4.46310       -1.38304        0.60206
In         5.07365       -3.38085        1.43521
C          3.67345       -5.06521        0.55381
C          3.10903       -5.06789       -0.88809
C          4.13338       -5.28642       -2.04689
F          5.14549       -4.39785       -1.99729
F          4.65758       -6.52906       -2.03240
F          3.50763       -5.12579       -3.24603
F          2.14237       -6.03977       -1.07960
F          2.50015       -3.86042       -1.12584
F          4.25458       -6.33805        0.71816
F          2.51228       -5.09882        1.34604
C          7.17140       -3.87068        0.76146
C          8.17865       -2.73846        1.00216
C          8.32185       -2.40989        2.48708
S          9.40471       -0.97691        2.86930
H          4.38447        1.32979       -3.14224
H          4.40154       -0.29037       -3.34317
H          3.31364        0.37146       -1.19775
H          4.89607        1.05257       -0.76902
H          5.93255       -1.19780       -1.00563
H          4.38922       -1.87147       -1.51450
H          3.37201       -1.29043        0.73222
H          4.91740       -0.61756        1.25529
H          4.77073       -3.55941        3.17585
H          7.12432       -4.09296       -0.31511
H          7.50954       -4.79596        1.25612
H          7.86840       -1.82465        0.46957
H          9.18699       -2.98748        0.60996
H          8.67890       -3.28364        3.05075
H          7.34888       -2.12779        2.91742
H         10.50042       -1.43057        2.21424
