65

C          4.34113       -0.39859       -1.23198
P          2.66018       -1.08591       -0.50050
C          3.23841       -0.94877        1.37781
C          2.35624       -0.58456        2.40701
C          2.73681       -0.60948        3.75196
C          4.03065       -1.02356        4.13860
C          4.91001       -1.41991        3.10870
C          4.51627       -1.37985        1.76741
Si         4.54307       -1.00186        5.93343
C          3.12044       -1.67807        7.01774
C          2.66140       -3.08823        6.62360
C          1.50975       -3.58723        7.47647
C          0.87143       -4.96779        7.08246
C          1.75179       -6.27502        7.06050
C          2.44084       -6.83128        8.37335
C          1.53036       -7.16758        9.61322
C          2.21965       -8.09651       10.68499
F          3.43170       -7.62347       11.03169
F          1.44130       -8.12710       11.78676
F          2.35479       -9.35557       10.23338
F          1.18606       -6.02081       10.24426
F          0.40387       -7.80793        9.20554
F          3.05053       -7.99304        7.99136
F          3.40495       -5.96280        8.76632
F          0.95552       -7.26907        6.58070
F          2.77018       -6.09137        6.17446
F         -0.18532       -5.21724        7.91204
F          0.38928       -4.84740        5.81362
F          1.87315       -3.67619        8.80543
F          0.45187       -2.70647        7.42643
C          6.08921       -2.05974        6.22210
C          4.88793        0.75460        6.55699
C          1.90471        0.73816       -0.49041
C          1.23474        1.13470       -1.80894
C         -0.12535        0.44084       -1.96757
C          1.08269        2.65696       -1.95971
H          4.94669       -1.24208       -1.59876
H          4.93695        0.18731       -0.51462
H          4.09950        0.25162       -2.08651
H          3.22449       -2.46932       -0.47733
H          2.18747       -1.31477       -1.89822
H          1.36293       -1.62416        0.03357
H          1.33461       -0.28862        2.14881
H          2.01038       -0.30129        4.51387
H          5.91873       -1.76708        3.35749
H          5.21828       -1.71167        0.99594
H          2.27484       -0.97742        6.93808
H          3.44166       -1.66139        8.07170
H          3.48525       -3.80948        6.72046
H          2.33811       -3.10926        5.57180
H          5.94149       -3.09955        5.89731
H          6.36468       -2.06963        7.28735
H          6.94648       -1.66091        5.66108
H          4.01092        1.39978        6.40397
H          5.72607        1.20202        6.00390
H          5.13946        0.76734        7.62865
H          2.72069        1.44025       -0.24816
H          1.16222        0.80448        0.32335
H          1.87891        0.77598       -2.63594
H         -0.82543        0.78578       -1.18738
H         -0.01623       -0.64749       -1.86571
H         -0.57913        0.65619       -2.94935
H          0.44132        3.06574       -1.16094
H          0.62519        2.92916       -2.92750
H          2.05849        3.16159       -1.89011
