49

F          7.10110        4.90926        3.09968
C          6.85960        3.94941        4.04591
C          5.62995        3.12642        3.73200
C          4.33509        3.94412        3.67229
Si         2.79724        2.90810        3.21574
C          2.64914        1.45518        4.39051
C          2.50612        1.67215        5.77818
C          2.40177        0.60026        6.67037
C          2.43112       -0.72152        6.21481
C          2.57196       -0.94642        4.84311
C          2.68438        0.11847        3.94289
As         2.33541       -2.31778        7.53672
C          0.20925       -2.07725        7.45957
O         -0.50634       -3.18143        8.13284
C         -1.82668       -3.19550        8.04181
F         -2.44249       -2.08083        8.56472
F         -2.30563       -3.30239        6.75671
F         -2.30889       -4.26651        8.72880
C          2.21321       -3.91337        8.88956
O          3.48787       -4.03360        9.61257
C          4.21864       -5.11210        9.39076
F          3.63682       -6.28263        9.84754
F          4.50812       -5.35278        8.07459
F          5.40034       -4.98803       10.05015
C          1.29637        4.05320        3.34854
C          2.98088        2.32371        1.42437
F          7.98497        3.17764        4.10513
F          6.76870        4.59986        5.24067
H          5.56307        2.34234        4.50075
H          5.83681        2.62152        2.77606
H          4.43490        4.76477        2.94309
H          4.15276        4.41551        4.65129
H          2.47244        2.69532        6.17064
H          2.30087        0.78743        7.74648
H          2.59455       -1.98063        4.47791
H          2.79789       -0.09532        2.87529
H          2.37739       -1.27012        8.76755
H          2.19987       -3.31659        6.26978
H          3.92836       -2.46142        7.54416
H         -0.07672       -2.07727        6.39744
H         -0.07139       -1.13284        7.95080
H          1.99195       -4.84838        8.35800
H          1.45839       -3.71763        9.65944
H          1.15750        4.39823        4.38307
H          0.38004        3.52308        3.05261
H          1.40283        4.93943        2.70563
H          3.86405        1.68387        1.28667
H          3.07973        3.18470        0.74690
H          2.10234        1.74520        1.10510
