20

Al         1.00770        0.03747       -0.52398
C          0.60823        1.53962        0.78257
N          0.84583        1.21897        2.21644
C          0.08398       -1.67185        0.12812
C         -1.42317       -1.51753        0.13482
S         -2.30720       -3.05941        0.66660
C         -4.03814       -2.52024        0.52219
F          2.69990       -0.29741       -0.66245
H          0.40511        0.45278       -2.00105
H         -0.44432        1.84592        0.58580
H          1.21936        2.42422        0.52029
H          0.57613        0.25261        2.40641
H          0.27189        1.79555        2.83724
H          0.44602       -1.94889        1.13462
H          0.37994       -2.49402       -0.54631
H         -1.80437       -1.26796       -0.86871
H         -1.74705       -0.72028        0.82406
H         -4.68143       -3.36673        0.79851
H         -4.27441       -2.22041       -0.50961
H         -4.25319       -1.67893        1.19776
