27

C          5.00307       -2.88223        0.91012
C          4.55165       -1.46062        0.56496
C          5.14761       -0.39215        1.48647
C          4.69365        1.03273        1.15350
C          5.27710        2.12511        2.07022
C          6.79126        2.33664        1.95486
Ga         7.54612        3.75815        3.16456
S          6.38345        5.75389        2.12264
O          6.52328        5.90491        0.66915
O          5.02322        5.89344        2.66330
F          7.16887        7.15197        2.72073
O          6.77928        3.83809        4.85375
H          4.56733       -3.62806        0.22861
H          4.70756       -3.15392        1.93520
H          6.09828       -2.97506        0.85070
H          3.44990       -1.40403        0.60487
H          4.82696       -1.23069       -0.47879
H          6.24818       -0.45064        1.43938
H          4.87634       -0.62264        2.53307
H          3.58975        1.07086        1.20166
H          4.96259        1.26245        0.10650
H          5.01560        1.88536        3.11657
H          4.75938        3.07147        1.84596
H          7.06436        2.59707        0.91846
H          7.34061        1.41163        2.20250
H          9.08675        4.07629        3.20708
H          5.85285        4.10903        4.76117
