22

Br         3.86737       -2.93929        0.36483
Ta         3.70453       -0.49247        0.61737
S          4.55522        1.77076       -0.16367
O          4.95895        1.25829        1.23948
O          5.64367        2.13127       -1.08634
C          3.84659        3.53308        0.27470
C          4.93881        4.65129        0.36849
C          4.45236        5.99985        1.01906
F          3.34520        6.46493        0.40293
F          4.19147        5.86463        2.33069
F          5.42630        6.93410        0.88584
F          5.98038        4.21159        1.12454
F          5.38840        4.97042       -0.87228
F          2.98587        3.85531       -0.73511
F          3.15808        3.50728        1.43600
C          2.00567        0.60925        1.66525
F          1.19630       -0.48020        2.03013
F          2.23108        1.27734        2.84752
F          1.15745        1.44648        0.96276
H          5.02649       -0.32676       -0.59423
H          3.85601       -0.75011        2.35821
H          2.22940       -0.50713       -0.34851
