41

N          0.97314       -0.34576       -0.52028
C          2.43637       -0.20503       -0.35286
C          2.89428        1.22172       -0.64122
C          4.41174        1.41534       -0.48903
C          4.96215        2.76494       -0.89705
C          4.55562        3.83708        0.08843
C          4.83241        5.25291       -0.41502
C          4.22546        6.38565        0.37803
O          3.30764        6.33807        1.16745
O          4.75383        7.64066        0.06594
C          6.46770        2.69873       -1.05614
C          6.92685        2.05850       -2.35926
O          8.37317        2.04389       -2.41990
C          8.87045        1.42890       -3.58233
C         10.38365        1.60132       -3.55847
O         10.95438        0.93929       -4.68599
C         12.35716        1.09332       -4.72903
H          0.70966       -1.33306       -0.49798
H          0.71684       -0.00587       -1.45016
H          3.01283       -0.89798       -1.00110
H          2.68250       -0.47162        0.68875
H          2.34389        1.91104        0.01910
H          2.61961        1.49564       -1.67644
H          4.90328        0.62110       -1.08048
H          4.67238        1.16616        0.58763
H          5.06058        3.73289        1.09844
H          3.47838        3.77642        0.30737
H          4.43584        5.31234       -1.45326
H          5.91809        5.42761       -0.51089
H          5.47591        7.49492       -0.57005
H          6.97415        2.14472       -0.21106
H          6.90991        3.71035       -1.03816
H          6.52480        2.63057       -3.21717
H          6.55617        1.01834       -2.44894
H          8.45287        1.89125       -4.50123
H          8.61574        0.34808       -3.61519
H         10.78850        1.18030       -2.61731
H         10.63490        2.67996       -3.57768
H         12.72178        0.55074       -5.61173
H         12.84347        0.67717       -3.82455
H         12.64953        2.15874       -4.81554
