45

C          2.54813       -1.08919        1.98040
C          2.87001       -0.35544        0.66749
C          3.93406       -1.02990       -0.19918
Ta         4.89669       -0.06156       -1.93908
C          6.26623        1.28655       -0.84583
C          7.67718        1.19954       -0.94562
C          8.53296        2.03251       -0.21874
C          8.03423        2.99406        0.68398
C          6.63158        3.04639        0.84117
C          5.78557        2.22613        0.09688
Si         9.18159        4.21728        1.50383
C         10.43737        3.35815        2.65918
C          9.79209        2.51913        3.76642
C         10.78258        1.91821        4.73977
F         11.69000        1.09829        4.13642
F         11.50711        2.87121        5.40501
F         10.16168        1.17112        5.70165
C         10.21007        5.13430        0.20596
C          8.22013        5.48495        2.53086
O          6.06491       -1.51590       -2.53950
H          1.75569       -0.58084        2.55587
H          3.43888       -1.15225        2.62558
H          2.21418       -2.12107        1.78652
H          3.17889        0.67500        0.91785
H          1.95266       -0.24536        0.06783
H          3.55622       -2.00845       -0.55978
H          4.82596       -1.27512        0.42548
H          4.46779       -0.06663       -3.67995
H          3.14642        0.24529       -2.17182
H          4.76304        1.59303       -2.62532
H          8.12503        0.46742       -1.62506
H          9.61500        1.93470       -0.36880
H          6.18783        3.76100        1.54149
H          4.70577        2.34562        0.23676
H         11.08164        4.13860        3.09696
H         11.09128        2.72176        2.04190
H          9.21076        1.68780        3.34056
H          9.09579        3.11680        4.37443
H         10.79782        4.42521       -0.39405
H         10.90578        5.84978        0.66913
H          9.55307        5.68417       -0.48203
H          7.63212        5.01155        3.32996
H          7.52246        6.04986        1.89708
H          8.91114        6.20182        2.99804
H          6.02149       -1.81563       -3.45590
