35

C          1.03078        2.23594        0.02470
O          2.43030        2.07057       -0.02272
C          2.90020        1.13050        0.94089
C          4.41323        1.04138        0.88338
O          4.99017        2.16665        1.50456
C          6.43091        2.24176        1.27464
C          7.03389        3.42681        1.97319
In         9.20411        3.71254        1.48540
C         10.11077        5.12163        2.95465
C          9.37718        6.20153        3.47881
C          9.93708        7.11425        4.38476
C         11.26643        6.98650        4.80768
C         12.00667        5.90350        4.30649
C         11.43896        4.99552        3.40643
C         11.88867        7.98147        5.75967
I         10.46654        1.18143        2.10737
H          0.76479        2.98534       -0.73285
H          0.69065        2.59383        1.01658
H          0.49479        1.29149       -0.20268
H          2.46231        0.13141        0.73259
H          2.58440        1.43734        1.95776
H          4.72643        0.96513       -0.17896
H          4.73071        0.10014        1.38410
H          6.58588        2.29231        0.17845
H          6.89313        1.30018        1.62936
H          6.94627        3.32538        3.06497
H          6.51623        4.35206        1.67284
H          9.57712        3.99765       -0.21559
H          8.33128        6.34488        3.18720
H          9.33001        7.93985        4.77217
H         13.04484        5.76966        4.62998
H         12.04633        4.15437        3.05829
H         11.13844        8.68609        6.14605
H         12.67629        8.57429        5.26632
H         12.35756        7.48224        6.62183
