69

C         17.66490       -3.90736        6.55848
C         17.10119       -2.49753        6.75249
C         15.63560       -2.37108        6.32544
C         15.04961       -0.96820        6.51190
C         13.58350       -0.85916        6.08133
C         12.97962        0.53706        6.25989
C         11.51085        0.62872        5.82412
C         10.89427        2.02341        6.00147
Si         9.06902        2.23198        5.48511
C          8.57357        4.01576        5.78473
C          9.29128        5.06678        5.17439
C          9.02442        6.40561        5.48017
C          8.02915        6.79388        6.40303
C          7.29143        5.73434        6.97019
C          7.55259        4.38773        6.68206
In         7.72730        8.96044        7.03727
C          7.42151       10.29398        5.18692
C          7.31467        9.57832        3.83184
C          6.05898        8.72182        3.62202
C          6.30976       11.33532        5.36122
C          6.03138        8.98323        8.55609
C          4.62085        9.44570        8.16053
C          3.91888        8.52815        7.15360
C          8.90144        1.74959        3.65593
C          8.00335        1.03857        6.50417
H         18.71693       -3.97254        6.87062
H         17.61056       -4.21415        5.50289
H         17.09662       -4.64578        7.14416
H         17.70892       -1.77493        6.18195
H         17.19722       -2.20375        7.81146
H         15.02878       -3.09727        6.89535
H         15.54085       -2.66678        5.26527
H         15.65345       -0.24109        5.94069
H         15.14243       -0.67136        7.57154
H         12.98360       -1.58960        6.65313
H         13.49438       -1.16023        5.02217
H         13.57314        1.27137        5.68721
H         13.06261        0.84197        7.31794
H         10.92763       -0.11478        6.39585
H         11.43731        0.31720        4.76717
H         11.48333        2.76768        5.43723
H         10.96847        2.33650        7.05760
H         10.08845        4.83727        4.45648
H          9.63206        7.17292        4.98772
H          6.48825        5.95940        7.68090
H          6.95633        3.61342        7.17766
H          9.24149        9.49791        7.83477
H          8.38172       10.83946        5.17900
H          8.19861        8.93551        3.68441
H          7.34792       10.33080        3.00998
H          6.00183        7.91894        4.37172
H          6.05856        8.25233        2.62546
H          5.13962        9.32228        3.69914
H          5.31153       10.87758        5.44307
H          6.26028       12.04444        4.50492
H          6.45343       11.93632        6.27229
H          6.40752        9.62130        9.37295
H          5.97027        7.96450        8.98195
H          4.66239       10.46397        7.73859
H          3.96597        9.52592        9.05399
H          4.49440        8.44699        6.22024
H          2.90995        8.89326        6.90002
H          3.81127        7.50889        7.55832
H          9.48216        2.42665        3.01285
H          7.85141        1.81107        3.33583
H          9.25204        0.72274        3.47153
H          8.08200        1.24749        7.58066
H          8.31664       -0.00305        6.33879
H          6.94247        1.11442        6.22552
