32

C          3.22080        1.14465       -1.23840
C          2.38899        0.37997       -0.21088
Nb         3.37340       -0.54035        1.50130
S          2.00321       -0.36966        3.65380
O          1.18326       -0.17322        2.38064
O          1.48376       -1.34588        4.63070
C          1.53216        1.26334        4.64914
C          1.79014        2.67338        4.05000
F          1.20957        2.82568        2.84781
F          1.26316        3.62965        4.87753
F          3.10795        2.93345        3.94223
F          0.19584        1.18043        4.90884
F          2.20070        1.20884        5.83943
C          5.46569       -0.19742        2.11334
C          5.82942        0.28419        3.52576
C          5.59746       -0.79553        4.58292
S          5.86765       -0.25127        6.31316
H          2.61417        1.51139       -2.08743
H          4.02524        0.51764       -1.64920
H          3.69375        2.02947       -0.78426
H          1.93933       -0.53591       -0.65463
H          1.55666        0.98562        0.18007
H          2.84486       -2.08688        2.26873
H          3.43136        1.10189        2.15905
H          4.33186       -1.26658        0.12310
H          5.82799        0.52437        1.35569
H          5.99201       -1.14640        1.88768
H          5.24423        1.17729        3.78911
H          6.89560        0.58325        3.57909
H          6.22190       -1.67942        4.38833
H          4.55021       -1.13200        4.57871
H          7.15541        0.13875        6.15224
