28

C          0.91971        0.13855       -0.05465
O          2.28296       -0.22119       -0.07577
C          2.94085        0.25942       -1.24965
C          4.40488       -0.15785       -1.22475
O          4.99205        0.36325       -2.38855
C          6.40392        0.00725       -2.52714
C          7.00338        0.58318       -3.78139
B          8.59880        0.17495       -4.02870
C          9.57993        0.80364       -2.85735
C          9.06437        0.70792       -5.51882
H          0.48516       -0.26634        0.86929
H          0.37057       -0.27929       -0.92207
H          0.78344        1.23859       -0.06317
H          2.87268        1.36369       -1.30274
H          2.45397       -0.14932       -2.15660
H          4.47983       -1.26626       -1.18500
H          4.89163        0.23205       -0.30430
H          6.47670       -1.09916       -2.53023
H          6.93049        0.37090       -1.62226
H          6.89571        1.68639       -3.74791
H          6.39989        0.23644       -4.64168
H          8.68483       -1.07680       -4.00229
H          9.50893        1.90996       -2.80344
H         10.64569        0.57274       -3.04454
H          9.36257        0.42992       -1.83862
H          8.99733        1.81208       -5.61038
H          8.44533        0.29105       -6.33599
H         10.11261        0.44275       -5.75389
