23

C          3.43985        0.96550        0.46141
C          2.77658       -0.41992        0.58416
Al         3.14329       -1.60905       -0.98936
C          2.17376       -3.47835       -0.79859
C          0.67884       -3.56142       -0.43723
F          0.44590       -3.01771        0.78511
F         -0.06683       -2.87556       -1.34232
F          0.18186       -4.83493       -0.40251
F          2.29889       -4.21525       -1.98412
F          2.80541       -4.29893        0.18592
C          5.09725       -2.24506       -1.17973
C          5.85460       -2.34544        0.08521
O          6.72790       -1.58508        0.47515
O          5.49967       -3.39659        0.91673
H          3.17934        1.64949        1.29005
H          3.14777        1.47089       -0.47413
H          4.53784        0.88219        0.44918
H          1.68314       -0.29870        0.68588
H          3.10653       -0.90444        1.51953
H          2.64703       -1.00156       -2.41578
H          5.61013       -1.55003       -1.85581
H          5.00603       -3.22561       -1.67352
H          4.69966       -3.82592        0.55444
