46

C          3.34706        1.94090        1.00358
In         2.14301        0.08680        0.67718
C          3.61394       -1.63094        0.91399
C          4.91382       -1.47136        1.44010
C          5.83851       -2.51717        1.50775
C          5.48591       -3.79136        1.03276
C          4.21066       -3.98550        0.48121
C          3.30940       -2.91933        0.43012
C          6.45966       -4.92661        1.12144
C          6.73259       -5.53493        2.55271
C          5.53124       -6.04729        3.43537
C          4.62478       -7.26228        2.97531
C          5.30673       -8.65422        2.70008
C          4.29808       -9.86627        2.65971
F          3.26686       -9.61960        1.83152
F          4.95755      -10.95460        2.20688
F          3.81702      -10.15065        3.88310
F          5.93308       -8.62112        1.50028
F          6.21667       -8.93734        3.66926
F          3.73379       -7.44714        3.99653
F          3.92930       -6.90662        1.87020
F          6.06719       -6.39914        4.64310
F          4.67567       -5.01757        3.64437
F          7.61553       -6.57522        2.43858
F          7.33312       -4.57085        3.30881
F          6.09046       -5.98853        0.32444
F          7.72234       -4.54213        0.69624
C          1.68909       -0.14973       -1.54086
C          2.79289        0.41970       -2.43640
C          2.69386        0.23359       -3.95434
O          3.31604        0.92723       -4.76347
N          1.89423       -0.80029       -4.36219
H          3.80980        1.95288        2.00170
H          2.73421        2.84887        0.90729
H          4.15442        1.99914        0.25772
H          0.70786       -0.13080        1.69944
H          5.22812       -0.48889        1.80657
H          6.83691       -2.34612        1.91578
H          3.93230       -4.96340        0.08689
H          2.32733       -3.10993       -0.01539
H          0.71332        0.29995       -1.78517
H          1.59458       -1.24287       -1.67312
H          3.77303       -0.01318       -2.16319
H          2.91533        1.50347       -2.28650
H          1.29088       -1.25198       -3.68338
H          1.74313       -0.93413       -5.35403
