60

S          0.85886       -0.33812       -0.01716
Al         3.12306        0.18428       -0.14598
C          4.15699       -0.77599        1.31878
C          4.51670       -2.13808        1.22126
C          5.21742       -2.80517        2.22815
C          5.60169       -2.14170        3.41355
C          5.25899       -0.77932        3.52488
C          4.56224       -0.12431        2.50244
Si         6.51655       -3.08610        4.74224
C          8.18299       -3.71418        4.04549
C          9.14036       -2.59367        3.61852
C         10.43492       -3.12963        3.03326
C         11.50069       -2.07888        2.55296
C         12.09446       -1.02479        3.56447
C         12.89452       -1.47370        4.85525
C         14.17426       -2.37233        4.67106
C         15.11867       -2.41254        5.93393
F         14.42342       -2.68522        7.05428
F         16.03407       -3.38620        5.75128
F         15.77091       -1.24865        6.09740
F         13.79862       -3.64642        4.41427
F         14.92195       -1.91077        3.63509
F         13.29912       -0.31023        5.44698
F         12.04190       -2.10000        5.70340
F         12.92201       -0.22036        2.84339
F         11.07001       -0.25577        4.03111
F         12.56278       -2.74623        2.01255
F         10.92668       -1.33313        1.56635
F         11.07610       -3.96546        3.92418
F         10.17982       -3.88584        1.91167
C          6.85451       -2.01443        6.26684
C          5.55339       -4.62635        5.27471
C          3.61963       -0.51795       -1.97208
C          3.04420        0.32031       -3.12273
C          3.10562       -0.35767       -4.49191
N          2.56750        0.52031       -5.55463
H          0.56549        0.62278        0.88790
H          3.31971        1.79192        0.08444
H          4.23771       -2.70266        0.32499
H          5.46455       -3.86468        2.09014
H          5.53625       -0.22047        4.42540
H          4.32348        0.93753        2.63074
H          7.95534       -4.35772        3.18122
H          8.66555       -4.35619        4.79959
H          9.39653       -1.95489        4.47534
H          8.67405       -1.94560        2.86078
H          7.43064       -1.11056        6.02267
H          7.41868       -2.58104        7.02254
H          5.91188       -1.68731        6.72837
H          5.32985       -5.26577        4.40879
H          4.59371       -4.34211        5.72897
H          6.11592       -5.22654        6.00523
H          3.21985       -1.54917       -2.04074
H          4.71473       -0.61468       -2.08877
H          3.56626        1.29015       -3.18553
H          1.98481        0.56185       -2.91085
H          2.57321       -1.32814       -4.41923
H          4.15499       -0.58987       -4.74249
H          1.63522        0.83521       -5.27447
H          2.43668       -0.00947       -6.41854
