14

N          1.00149       -0.35576        0.04823
B          2.27992        0.44804        0.29248
C          3.36588       -0.41434        1.20255
C          4.67834        0.23303        1.72124
F          5.56358        0.48867        0.73179
F          4.43044        1.40219        2.36714
F          5.33616       -0.57181        2.62250
F          2.73108       -0.84480        2.38849
F          3.78816       -1.60587        0.58526
S          3.09318        1.03715       -1.38012
H          0.56411       -0.63261        0.93032
H          1.18594       -1.22268       -0.46180
H          2.04948        1.48173        0.91054
H          3.56271       -0.16176       -1.80461
