65

C          0.46183       -0.03373        0.74675
C          1.97976        0.07179        0.57931
C          2.64350       -1.25585        0.20074
C          4.16367       -1.16304        0.03790
C          4.82435       -2.48188       -0.37534
C          6.34520       -2.38741       -0.53590
C          7.00275       -3.69185       -1.00486
C          8.52748       -3.60244       -1.15556
Si         9.38930       -5.21689       -1.72214
C          9.03287       -6.61860       -0.58122
C          8.66578       -7.91924       -1.02940
C          8.44347       -8.98286       -0.17625
C          8.55061       -8.85897        1.26853
C          8.93035       -7.53367        1.71329
C          9.15378       -6.49313        0.83399
C          8.28955       -9.93608        2.10481
C          7.96287      -11.33964        1.72057
C          9.17224      -12.29594        1.59783
C          8.77999      -13.74381        1.29211
C          9.97362      -14.69077        1.13840
C          9.58415      -16.14740        0.86599
C         10.78866      -17.08033        0.71425
Br         8.54728       -9.73768        4.02982
C          8.81708       -5.61260       -3.49434
C         11.24270       -4.77162       -1.83427
H          0.01286        0.93424        1.01271
H          0.19930       -0.75226        1.53787
H         -0.01659       -0.37958       -0.18217
H          2.42855        0.44727        1.51475
H          2.21437        0.82573       -0.19169
H          2.19838       -1.62793       -0.73945
H          2.40429       -2.01415        0.96716
H          4.60965       -0.81231        0.98569
H          4.40156       -0.38727       -0.71223
H          4.37932       -2.82683       -1.32587
H          4.58538       -3.26124        0.36905
H          6.79507       -2.08181        0.42570
H          6.58638       -1.58040       -1.25204
H          6.54900       -3.98925       -1.96725
H          6.75866       -4.50241       -0.29808
H          8.97300       -3.30942       -0.18750
H          8.79306       -2.79421       -1.86217
H          8.55621       -8.10524       -2.10376
H          8.17884       -9.94990       -0.60974
H          9.04143       -7.36252        2.78501
H          9.43979       -5.52532        1.26483
H          7.42795      -11.32584        0.75227
H          7.25094      -11.77876        2.44572
H          9.74154      -12.25870        2.54187
H          9.84601      -11.91365        0.81276
H          8.17295      -13.77351        0.36821
H          8.12026      -14.11759        2.09679
H         10.59214      -14.64722        2.05308
H         10.62241      -14.32955        0.32061
H          8.96610      -16.19210       -0.04740
H          8.93837      -16.50827        1.68507
H         11.43381      -16.76242       -0.11928
H         10.48209      -18.11938        0.52260
H         11.40736      -17.07780        1.62508
H          7.73781       -5.81866       -3.53511
H          9.33749       -6.49894       -3.88637
H          9.03118       -4.77255       -4.17281
H         11.64349       -4.53440       -0.83739
H         11.42612       -3.90481       -2.49000
H         11.81889       -5.62430       -2.22289
