17

S          1.55838       -1.15078        0.40347
Ta         3.83178       -0.84282       -0.44904
C          5.35761        0.51039       -1.44690
F          5.40257        1.77464       -0.82649
F          6.67672        0.06001       -1.30948
F          5.23116        0.80058       -2.78921
C          4.81748       -0.58805        1.47833
C          4.68376       -1.55154        2.62046
O          5.62619       -2.06957        3.19585
O          3.41345       -1.83262        3.02904
H          1.26482        0.10286        0.85236
H          3.22924       -2.46484       -0.83863
H          4.73649       -1.74952       -1.67044
H          3.01201        0.59575       -1.06407
H          4.32982        0.37356        1.74256
H          5.88525       -0.39494        1.29444
H          2.77591       -1.53431        2.32607
