57

C          9.06021       -4.42490       -3.78602
C          8.63925       -3.31982       -2.81454
C          9.09216       -1.92339       -3.25168
C          8.68248       -0.81170       -2.28151
C          9.14108        0.58378       -2.71454
C          8.73211        1.69430       -1.74253
C          9.19057        3.09059       -2.17924
C          8.76276        4.21175       -1.22055
Si         9.22561        5.97236       -1.78024
C          8.51502        6.29182       -3.49011
C          7.12536        6.42918       -3.67865
C          6.57902        6.60281       -4.95185
C          7.37968        6.64009       -6.11030
C          8.76815        6.50777       -5.91432
C          9.32262        6.34214       -4.64337
B          6.72430        6.76910       -7.57149
S          6.98894        8.55403       -8.29598
O          6.47696        8.69500       -9.65429
O          6.73030        9.63346       -7.35497
F          8.65727        8.60783       -8.50779
C          7.22029        5.69282       -8.69785
C          6.67161        4.29879       -8.49742
O          7.27545        3.25748       -8.66905
O          5.35422        4.25260       -8.11575
C          8.50748        7.18825       -0.51577
C         11.11079        6.15969       -1.80061
H          8.72177       -5.41495       -3.44821
H         10.15502       -4.46410       -3.89171
H          8.64034       -4.25224       -4.78825
H          9.04601       -3.53507       -1.81144
H          7.54162       -3.32516       -2.70325
H          8.68109       -1.70356       -4.25234
H         10.19051       -1.91832       -3.36954
H          9.08926       -1.03541       -1.27871
H          7.58372       -0.81425       -2.16949
H          8.73270        0.80900       -3.71456
H         10.23970        0.58625       -2.82953
H          9.13692        1.47270       -0.73819
H          7.63307        1.69616       -1.63279
H          8.79381        3.30051       -3.18636
H         10.28985        3.08763       -2.28469
H          9.18406        4.03501       -0.21402
H          7.66536        4.18732       -1.09512
H          6.45101        6.39941       -2.81617
H          5.49595        6.70938       -5.05708
H          9.43448        6.54151       -6.77975
H         10.40836        6.24700       -4.55172
H          5.49024        6.81564       -7.49899
H          8.31228        5.60809       -8.77682
H          6.85380        6.03015       -9.68345
H          5.10037        5.18136       -7.91327
H          7.40959        7.13503       -0.49193
H          8.78263        8.22248       -0.76707
H          8.87655        6.97253        0.49810
H         11.58849        5.44010       -2.48027
H         11.52625        5.99633       -0.79509
H         11.40168        7.16872       -2.12602
