35

O          3.42349        0.48252       -1.89019
C          3.26464       -0.73004       -1.52585
O          2.96087       -1.72178       -2.18714
C          3.55981       -0.88257        0.03286
S          2.90519       -2.38521        0.83825
O          3.40141       -3.63273        0.29022
O          2.93138       -2.17030        2.28014
C          1.02211       -2.32795        0.35912
C          0.04197       -2.65869        1.54858
C         -0.04812       -1.63174        2.76283
C         -1.51701       -1.30492        3.22601
F         -2.19129       -2.43414        3.53383
F         -1.45887       -0.53940        4.33738
F         -2.20216       -0.62407        2.29032
F          0.57841       -2.15035        3.84345
F          0.52565       -0.44575        2.43958
F         -1.20613       -2.74075        0.98051
F          0.34577       -3.88527        2.03748
F          0.68210       -1.11676       -0.14817
F          0.80036       -3.27334       -0.57583
C          5.04034       -0.72232        0.29290
C          5.93013       -1.78712        0.06579
C          7.30063       -1.62902        0.26000
C          7.81088       -0.40154        0.69123
C          6.93938        0.66255        0.90874
C          5.55999        0.53000        0.69359
C          4.73311        1.78522        0.90304
O          4.97520        2.52410        1.85198
O          3.79365        2.06385        0.01120
H          3.00070       -0.10157        0.56701
H          5.53553       -2.74552       -0.26851
H          7.96993       -2.47048        0.07346
H          8.88250       -0.27250        0.85286
H          7.30605        1.63062        1.25168
H          3.70110        1.37176       -0.81173
