49

C          1.37021       -0.48969       -0.14911
C          2.56630        0.21347        0.49763
C          3.63352       -0.75803        1.01157
C          4.83311       -0.05857        1.66984
C          5.90671       -1.01757        2.18267
Ta         7.91966       -0.66443        2.75417
S          9.07761        0.49772        0.89291
O          8.03263        1.41724        0.37641
O         10.43239        1.02477        1.10992
C          9.48282       -0.57921       -0.71411
C          8.37910       -1.33252       -1.52312
C          7.22243       -0.55681       -2.27102
C          7.58981        0.59475       -3.27357
F          8.52320        0.18577       -4.15875
F          6.46968        0.91631       -3.97118
F          8.01891        1.69428       -2.65260
F          6.56831       -1.50673       -3.01495
F          6.33902       -0.06046       -1.37677
F          9.00812       -2.08162       -2.48747
F          7.74095       -2.20287       -0.68572
F         10.11036        0.26310       -1.59138
F         10.38354       -1.53708       -0.34982
C          8.06937       -0.29513        4.98989
C          7.83912        1.08535        5.69799
C          6.43969        1.74049        5.43178
C          6.33765        3.27662        5.74439
F          6.75672        3.54787        6.99799
F          7.05082        4.01277        4.87870
F          5.04062        3.66016        5.64677
F          6.09647        1.59202        4.11797
F          5.49019        1.12304        6.18684
F          7.94832        0.95556        7.06488
F          8.80490        1.96941        5.31246
F          7.11087       -1.12771        5.61971
F          9.31222       -0.67700        5.48620
H          0.62355        0.22999       -0.51569
H          0.86664       -1.15742        0.56657
H          1.68786       -1.10480       -1.00466
H          2.21664        0.84491        1.33205
H          3.02666        0.90205       -0.23037
H          3.99314       -1.37952        0.17297
H          3.17561       -1.45714        1.73443
H          4.46969        0.55799        2.50669
H          5.28277        0.64207        0.94855
H          6.20222       -1.74598        1.38492
H          5.53662       -1.64695        3.02172
H          8.86934       -1.87778        1.90346
H          8.39036       -2.08327        3.66950
H          8.57787        0.95345        3.02933
