53

C          6.97292       -9.80633        4.49768
O          6.57708       -9.05632        3.36847
C          6.47302       -7.66132        3.66661
C          6.26236       -6.91056        2.35896
O          6.00714       -5.55744        2.69802
C          6.33746       -4.60630        1.68655
C          6.80333       -3.30467        2.35226
C          8.35058       -3.17709        2.53094
C          9.08039       -3.30218        1.18026
C         10.23235       -4.10554        1.07588
C         10.91291       -4.28210       -0.12989
C         10.44611       -3.67966       -1.29895
C          9.32111       -2.86530       -1.22863
C          8.65961       -2.63944       -0.00615
C          7.55324       -1.62313       -0.13097
O          6.73451       -1.63398       -1.02934
O          7.55705       -0.58638        0.75231
C          8.75587       -1.90461        3.24045
C          8.00152       -1.41245        4.33486
C          8.41798       -0.29057        5.04606
C          9.60350        0.38534        4.71896
C         10.35539       -0.09009        3.65066
C          9.93839       -1.21515        2.91878
C         11.64152        0.58348        3.25776
F         11.90047        1.70221        3.99119
F         12.72331       -0.23907        3.40912
F         11.64416        0.96845        1.94566
C          7.60866        0.23426        6.20201
F          6.45948       -0.45157        6.41180
F          8.31006        0.20222        7.37742
F          7.25534        1.54808        6.01999
C          8.68049       -4.41694        3.62924
O          9.03572       -5.50224        3.12722
O          8.45373       -4.09453        4.80934
H          7.05480      -10.85568        4.18254
H          6.23195       -9.73600        5.31904
H          7.95130       -9.46824        4.88823
H          7.39581       -7.28495        4.14189
H          5.62210       -7.47796        4.35273
H          5.41846       -7.35387        1.79081
H          7.17884       -6.98927        1.74970
H          5.44706       -4.40795        1.05889
H          7.12515       -5.01429        1.03104
H          6.33172       -3.27929        3.34394
H          6.40002       -2.44665        1.79708
H         10.56187       -4.63985        1.96341
H         11.80278       -4.91455       -0.15264
H         10.95444       -3.83448       -2.25233
H          8.93224       -2.36998       -2.11917
H          8.25080       -0.72575        1.43394
H          7.09188       -1.92254        4.63382
H          9.92140        1.26225        5.28043
H         10.56412       -1.57311        2.10019
