40

O          1.57896        0.54186       -0.72901
C          2.75562        0.29452       -0.33362
O          3.36816        0.90151        0.58649
C          3.50007       -0.89554       -1.07812
C          2.92720       -2.24749       -0.63243
C          1.83533       -2.36273        0.24085
C          1.34840       -3.61520        0.63039
C          1.92172       -4.80321        0.16230
C          3.01103       -4.69262       -0.71570
C          3.50067       -3.44500       -1.10093
C          1.39070       -6.15417        0.57655
C          5.03167       -0.85123       -0.82500
C          5.50048       -1.30175        0.58543
C          6.50612       -0.34256        1.22158
O          7.68677       -0.64516        1.44017
N          5.96430        0.86487        1.52352
C          3.21789       -0.74169       -2.59981
C          3.63210        0.62536       -3.20900
C          2.52731        1.29632       -4.02915
O          2.67582        1.61246       -5.21707
N          1.38752        1.52370       -3.32874
H          1.35349       -1.45721        0.61091
H          0.50050       -3.66580        1.31948
H          3.48823       -5.59889       -1.10000
H          4.35730       -3.40410       -1.77724
H          0.62497       -6.05682        1.35844
H          2.19147       -6.80064        0.96696
H          0.93289       -6.68591       -0.27298
H          5.36682        0.17896       -1.00900
H          5.53734       -1.47411       -1.58077
H          5.97182       -2.29131        0.54984
H          4.62777       -1.36613        1.25125
H          4.98347        1.04870        1.23393
H          6.57571        1.59233        1.87333
H          2.14138       -0.89639       -2.74559
H          3.73152       -1.55179       -3.14163
H          4.50348        0.53062       -3.86804
H          3.90541        1.32505       -2.40201
H          1.30476        1.21108       -2.34140
H          0.60840        1.94638       -3.81810
