34

N          0.83653        0.44143       -0.06327
C          2.26342        0.86851        0.01274
C          3.02789        0.58883       -1.27410
Al         4.94480        1.25682       -1.22317
C          6.10819        0.02689        0.07522
C          5.92423       -1.49973        0.27881
C          6.14054       -2.40592       -0.97192
F          5.28238       -2.08812       -1.96257
F          7.39780       -2.32008       -1.45247
F          5.91934       -3.70821       -0.64321
F          6.76936       -2.00358        1.24793
F          4.64208       -1.74194        0.70658
F          7.48353        0.18448       -0.19853
F          5.94986        0.52136        1.38578
C          5.94577        1.54086       -2.98295
C          6.02384        0.43075       -4.04584
C          4.67417       -0.01161       -4.62787
C          5.48358        2.87336       -3.60182
H          0.41742        0.46907        0.87139
H          0.81851       -0.54248       -0.34523
H          2.78849        0.39147        0.86319
H          2.26510        1.95207        0.21777
H          2.50151        1.07507       -2.11612
H          3.00093       -0.49711       -1.48603
H          5.02608        2.67865       -0.41582
H          6.98191        1.70180       -2.62483
H          6.53037       -0.45056       -3.62115
H          6.66552        0.76403       -4.89101
H          4.00636       -0.39062       -3.84111
H          4.80160       -0.80746       -5.37897
H          4.15480        0.82396       -5.12130
H          4.43273        2.84007       -3.93496
H          6.08755        3.15658       -4.48913
H          5.55448        3.69549       -2.87390
