15

O          3.48757        2.89406        1.73882
C          2.62348        2.05737        1.16179
O          1.48731        2.39702        0.85648
C          3.12973        0.62481        0.94642
C          4.62423        0.49605        0.61087
N          5.38040        1.18760        1.65617
S          6.92793        1.00732        1.68331
O          7.51793        1.66789        2.82991
O          7.41046       -0.31413        1.29967
F          7.48740        1.94158        0.39733
H          4.39651        2.37617        1.85457
H          2.50820        0.17104        0.16346
H          2.93073        0.08085        1.88564
H          4.81072        0.94144       -0.38685
H          4.89796       -0.57090        0.54356
