28

N          2.60945       -1.43697        0.39156
C          2.76497       -0.02450       -0.00007
B          3.14059        0.96705        1.21126
S          1.78160        1.00628        2.61081
O          1.20447       -0.31213        2.90380
O          2.11254        1.89178        3.72503
C          0.27837        2.01862        1.76669
C         -0.93012        1.15828        1.29011
C         -2.03740        1.91994        0.47315
F         -2.49900        2.99500        1.14410
F         -1.57825        2.32822       -0.72576
F         -3.08452        1.08748        0.25271
F         -0.49571        0.15291        0.48016
F         -1.55085        0.62241        2.37449
F         -0.17548        2.88789        2.70689
F          0.74316        2.74722        0.70801
S          4.82520        0.41908        2.01314
O          4.73183       -0.34543        3.25587
O          5.72721       -0.03620        0.95202
C          5.67051        2.05997        2.55029
F          5.89375        2.87312        1.48760
F          4.96061        2.75103        3.46081
F          6.87407        1.75640        3.09545
H          2.21016       -1.98160       -0.37325
H          1.96622       -1.51058        1.18226
H          1.88379        0.39426       -0.52926
H          3.60442        0.04656       -0.71225
H          3.30497        2.12093        0.89489
