17

C          1.00943       -0.05391       -0.05565
C          2.54252       -0.09883       -0.07082
C          3.12954       -1.40629        0.49641
C          4.65787       -1.48245        0.51667
In         5.53277       -3.36879        1.38149
Cl         7.64903       -3.59362        0.01237
H          0.61619        0.89740       -0.44777
H          0.62025       -0.17624        0.96779
H          0.58102       -0.86606       -0.66400
H          2.94264        0.75273        0.50728
H          2.90805        0.04245       -1.10296
H          2.72105       -2.25199       -0.08756
H          2.72621       -1.53973        1.51856
H          5.07550       -0.63151        1.08196
H          5.06062       -1.40664       -0.50715
H          4.56756       -4.81667        1.01222
H          6.09393       -3.20193        3.06014
