43

F          1.36884        1.46428       -0.77280
C          2.71202        1.30489       -0.59458
C          3.15543        1.58840        0.82217
C          2.84517        3.00932        1.30621
Si         3.44886        3.32143        3.09456
C          2.85143        1.93677        4.17459
C          1.46616        1.65732        4.26983
C          0.98256        0.57939        4.99391
C          1.85125       -0.31447        5.68586
C          3.24569       -0.02722        5.59847
C          3.71356        1.05620        4.86380
N          1.27300       -1.35494        6.34920
C          1.96461       -2.26356        7.02595
C          1.03438       -3.34476        7.65347
C         -0.01015       -4.05235        6.70414
C          0.49740       -4.71192        5.37322
F          1.50653       -5.57566        5.60557
F         -0.53289       -5.42408        4.83341
F          0.88517       -3.81309        4.46345
F         -0.56738       -5.08016        7.43410
F         -1.01570       -3.20603        6.37554
F          1.77309       -4.34190        8.23461
F          0.27601       -2.78290        8.64850
F          2.96555       -3.03265        6.28994
F          2.76898       -1.80304        8.14358
C          5.33998        3.43133        3.06932
C          2.74938        5.00459        3.61223
F          3.00499        0.02499       -0.97408
F          3.32052        2.12246       -1.51134
H          4.23494        1.37541        0.85331
H          2.66908        0.84340        1.46969
H          1.75679        3.17806        1.28201
H          3.29577        3.75702        0.63370
H          0.74412        2.30182        3.75571
H         -0.08847        0.37610        5.04936
H          3.95403       -0.67625        6.11140
H          4.79539        1.21765        4.82527
H          5.80007        2.49286        2.72939
H          5.73389        3.64987        4.07222
H          5.66872        4.23505        2.39413
H          1.65194        4.96655        3.66565
H          3.03029        5.79975        2.90564
H          3.12003        5.28179        4.60919
