44

C          0.85523       -2.47760        0.24651
C          1.92349       -1.39548        0.42924
C          3.04993       -1.48279       -0.60719
C          4.12582       -0.39766       -0.46861
C          4.85381       -0.39219        0.82573
C          5.33542       -1.57879        1.42308
C          6.04352       -1.55307        2.61760
C          6.31184       -0.33267        3.26048
C          5.87317        0.86339        2.66275
C          5.16042        0.82479        1.47152
C          7.02783       -0.29733        4.56894
C          6.17794        0.07764        5.84649
C          4.86513       -0.73171        6.18171
C          4.89766       -2.27478        6.51968
C          5.72301       -2.83735        7.74720
C          5.43037       -2.28127        9.19049
F          4.11195       -2.28622        9.46177
F          6.04873       -3.08549       10.08462
F          5.90572       -1.03811        9.35317
F          5.43463       -4.17138        7.78983
F          7.04832       -2.69939        7.51315
F          3.59598       -2.62434        6.73736
F          5.33551       -2.95717        5.43510
F          4.30203       -0.11804        7.27132
F          4.00294       -0.60359        5.14518
F          6.98117        0.02745        6.95296
F          5.75700        1.36977        5.71132
F          7.63802       -1.49765        4.86340
F          8.03440        0.66121        4.57288
C          5.22003       -0.57605       -1.67932
O          5.42398        0.47163       -2.32881
O          5.68229       -1.73341       -1.78633
H          0.05122       -2.39264        0.99354
H          1.29153       -3.48425        0.33996
H          0.39173       -2.41579       -0.75066
H          2.35110       -1.46782        1.44309
H          1.45142       -0.39906        0.37397
H          2.62083       -1.40690       -1.62102
H          3.53350       -2.47200       -0.57127
H          3.67830        0.59384       -0.62975
H          5.16691       -2.52944        0.91833
H          6.40217       -2.48451        3.05375
H          6.09467        1.82201        3.13245
H          4.83124        1.75704        1.00877
