63

N          3.06188       -0.72892       -2.74989
C          4.03083       -1.41921       -1.85541
Al         3.17991       -1.86881       -0.05980
C          1.79992       -3.35601       -0.30845
C          1.25812       -3.62445       -1.58727
C          0.26602       -4.58678       -1.79543
C         -0.25545       -5.34819       -0.72685
C          0.27659       -5.09688        0.55492
C          1.27242       -4.13188        0.74652
Si        -1.55102       -6.65637       -1.04637
C         -0.73766       -8.17600       -1.87913
C          0.39316       -8.79396       -1.04656
C          1.05001       -9.97805       -1.73188
C          2.26210      -10.64552       -0.99158
C          2.05418      -11.26929        0.44718
C          0.97046      -12.40179        0.61302
C          1.14746      -13.25812        1.92829
C         -0.12346      -14.09684        2.32973
F         -0.57777      -14.81676        1.28635
F          0.21842      -14.94818        3.31923
F         -1.11132      -13.30506        2.77835
F          2.16688      -14.13611        1.75116
F          1.43921      -12.44926        2.97944
F         -0.26084      -11.82287        0.64836
F          1.02664      -13.25668       -0.43749
F          3.25997      -11.79691        0.80730
F          1.75297      -10.26751        1.31468
F          2.77644      -11.62792       -1.78432
F          3.22631       -9.69487       -0.82505
F          0.13729      -10.98601       -1.98028
F          1.55817       -9.60904       -2.95615
C         -2.38253       -7.23092        0.55688
C         -2.88919       -6.04800       -2.24009
C          4.60855       -2.51682        1.25122
C          5.72226       -1.54875        1.66226
S          5.07469       -0.21218        2.74149
C          6.64441        0.55286        3.23587
H          3.53089       -0.18446       -3.47892
H          2.51771       -0.05948       -2.20161
H          4.94882       -0.81559       -1.68033
H          4.37406       -2.33941       -2.36471
H          2.36445       -0.52522        0.43326
H          1.61658       -3.04315       -2.44410
H         -0.11657       -4.74109       -2.81136
H         -0.09835       -5.65494        1.41999
H          1.64394       -3.97486        1.76566
H         -0.34255       -7.84509       -2.85224
H         -1.51231       -8.93102       -2.08930
H          0.01773       -9.13776       -0.07194
H          1.17673       -8.04823       -0.84246
H         -1.66061       -7.63252        1.28235
H         -3.12465       -8.01672        0.35107
H         -2.90306       -6.39406        1.04404
H         -2.45061       -5.70355       -3.18730
H         -3.43948       -5.20200       -1.80459
H         -3.61183       -6.84464       -2.47167
H          5.09633       -3.36638        0.73568
H          4.15920       -2.95262        2.16169
H          6.18074       -1.07241        0.77900
H          6.53425       -2.03287        2.23817
H          6.41013        1.34628        3.95848
H          7.16363        1.00305        2.37661
H          7.31280       -0.17725        3.71789
