29

O          2.05120        0.35546        1.30911
C          2.64654       -0.80485        1.02274
O          2.08688       -1.86960        1.28103
C          4.03079       -0.70376        0.37599
C          5.07676       -0.14242        1.32365
S          5.23489        1.48733        1.40298
O          3.97235        2.15306        0.96353
O          5.94694        1.98669        2.58047
C          6.39508        2.14970       -0.00003
C          6.57047        3.67923       -0.20280
F          5.41061        4.27255       -0.54812
F          7.04510        4.27640        0.90784
F          7.46501        3.93459       -1.20994
F          7.64646        1.63159        0.21667
F          5.94886        1.64505       -1.20110
C          6.05369       -1.03465        2.04498
C          5.41154       -2.04961        3.05446
C          5.30060       -3.46202        2.49138
O          6.26972       -4.23077        2.48270
N          4.08212       -3.83073        2.00006
H          2.71343        1.10850        1.15881
H          3.92381       -0.07985       -0.52624
H          4.32194       -1.71111        0.04570
H          6.74156       -0.38950        2.60658
H          6.67884       -1.61581        1.34118
H          4.43768       -1.66813        3.39140
H          6.06602       -2.13707        3.93240
H          3.32837       -3.15715        1.80685
H          4.04844       -4.72764        1.52739
