28

I          1.11784       -0.38661        0.97506
C          2.91531       -0.56929       -0.16874
C          4.06484       -1.04968        0.57787
C          4.02982       -2.46859        1.26896
C          3.69407       -3.74341        0.39766
C          4.63987       -4.13456       -0.79493
F          5.92834       -4.21820       -0.40319
F          4.26778       -5.36603       -1.24053
F          4.55131       -3.28673       -1.82220
F          3.74500       -4.81428        1.26019
F          2.43323       -3.67253       -0.09086
F          5.26384       -2.71445        1.82010
F          3.12981       -2.50191        2.29288
F          5.20343       -1.09492       -0.21709
F          4.49199       -0.22107        1.70328
C          3.10368        0.49591       -1.17280
C          3.37678        0.06897       -2.67238
C          2.29873       -0.81199       -3.42447
C          0.83453       -0.26940       -3.60818
F          0.81762        0.99220       -4.08380
F          0.20422       -1.05830       -4.52105
F          0.12802       -0.32196       -2.47346
F          2.78595       -0.98442       -4.69866
F          2.19325       -2.03666       -2.85740
F          3.53740        1.19642       -3.44910
F          4.53571       -0.63746       -2.76793
F          1.99413        1.32016       -1.29638
F          4.18739        1.37900       -0.91702
