18

N          0.94590       -1.18179        0.01224
P          2.08567        0.14281       -0.43395
C          3.45273        1.51266       -1.02926
C          3.32862        3.02101       -0.66897
C          3.39836        3.44014        0.84017
F          4.52980        3.01213        1.43192
F          3.39891        4.80775        0.91260
F          2.34587        3.01147        1.54894
F          4.33022        3.75270       -1.28448
F          2.13886        3.50309       -1.15180
F          4.73257        1.13792       -0.64345
F          3.49350        1.52365       -2.42951
F          2.81966        0.13443        1.16263
H         -0.00798       -0.83817       -0.13564
H          1.03031       -1.33746        1.01936
H          3.09981       -0.81382       -0.81740
H          1.23488        1.21198        0.06072
H          1.52809        0.22781       -1.77033
