35

C          1.50969        3.49068       -4.74178
C          3.01781        3.22999       -4.74562
C          3.51455        2.47498       -3.50836
C          5.03781        2.26396       -3.49895
C          5.58750        1.58137       -2.24297
Nb         7.70977        1.13520       -2.21163
S          7.94106        0.28312        0.12726
O          9.18247       -0.27054        0.66149
O          7.20530        1.22497        0.98701
F          6.88421       -1.07194        0.14944
C          8.58700        2.83391       -3.32368
C         10.01325        2.91360       -3.84936
C         10.23734        4.15433       -4.72046
S         11.89223        4.27764       -5.51752
H          1.18847        4.03948       -5.63950
H          1.21442        4.08548       -3.86390
H          0.94252        2.54823       -4.70507
H          3.55624        4.19053       -4.81826
H          3.29263        2.66258       -5.65137
H          3.00787        1.49624       -3.44023
H          3.22581        3.03006       -2.59843
H          5.52021        3.24988       -3.62042
H          5.31345        1.68696       -4.40057
H          5.14666        0.57076       -2.10552
H          5.35449        2.15569       -1.32784
H          8.81564        2.02530       -1.15523
H          8.09415       -0.58491       -2.31708
H          8.35906        0.49768       -3.72373
H          8.34252        3.74740       -2.74642
H          7.88209        2.77838       -4.18539
H         10.25432        2.01138       -4.43223
H         10.72107        2.93801       -3.00277
H         10.05155        5.07502       -4.14937
H          9.54200        4.15174       -5.57377
H         12.61781        4.15099       -4.38104
