90

C          3.27131        1.05073        2.32258
C          3.65940        0.31279        1.03708
C          4.02650       -1.16555        1.25744
C          4.32076       -1.92984       -0.02248
Sb         4.83485       -4.12479        0.28628
C          4.62196       -4.31261       -2.02235
C          5.69534       -4.52611       -2.90384
C          5.52546       -4.52785       -4.29127
C          4.25158       -4.30136       -4.83792
C          3.16181       -4.08940       -3.97884
C          3.35929       -4.10356       -2.59558
C          4.07085       -4.25935       -6.32592
C          4.09557       -5.62895       -7.10975
C          3.08955       -6.77964       -6.72664
C          1.52305       -6.59396       -6.87386
C          0.93314       -6.21291       -8.28321
C         -0.61296       -6.49441       -8.42376
F         -1.30038       -5.99611       -7.37990
F         -1.05689       -5.89683       -9.55044
F         -0.86536       -7.81175       -8.52386
F          1.11937       -4.89148       -8.50888
F          1.54964       -6.92275       -9.26462
F          0.98809       -7.80535       -6.53006
F          1.09681       -5.67734       -5.97425
F          3.42608       -7.85445       -7.50150
F          3.29235       -7.11992       -5.43028
F          3.92359       -5.38118       -8.44548
F          5.33385       -6.17867       -6.95117
F          2.89173       -3.64214       -6.68384
F          5.08738       -3.53559       -6.92926
C          7.11321       -3.78153       -0.01032
C          7.73446       -2.55458       -0.30257
C          9.11482       -2.45960       -0.51782
C          9.95062       -3.59373       -0.45004
C          9.32958       -4.82201       -0.14730
C          7.94725       -4.90478        0.06497
Si        11.81044       -3.42885       -0.68148
C         12.52485       -2.39150        0.74941
C         12.15161       -2.91748        2.14258
C         12.63578       -2.04852        3.30890
C         12.17853       -2.58506        4.66840
C         12.63880       -1.75448        5.86925
C         12.14599       -2.31417        7.20704
C         12.61051       -1.51816        8.42998
C         12.10618       -2.10290        9.75177
C         12.63830       -5.13386       -0.69174
C         12.23693       -2.54979       -2.30617
H          3.03493        2.10914        2.13291
H          4.08637        1.01801        3.06187
H          2.38717        0.59011        2.78968
H          4.51147        0.82605        0.55846
H          2.82901        0.37298        0.31279
H          3.19742       -1.65924        1.79773
H          4.89271       -1.21952        1.94207
H          5.13206       -1.46182       -0.60000
H          3.43552       -1.96317       -0.67584
H          4.96810       -3.88065        2.06226
H          5.27964       -5.85457        0.42272
H          3.07788       -4.50684        0.38753
H          6.70200       -4.67763       -2.50509
H          6.38205       -4.68009       -4.95098
H          2.17218       -3.89537       -4.39388
H          2.49674       -3.93565       -1.94012
H          7.13861       -1.64091       -0.37902
H          9.54523       -1.47822       -0.75034
H          9.93200       -5.73407       -0.08252
H          7.49559       -5.88128        0.28324
H         12.15150       -1.35851        0.63221
H         13.62278       -2.33054        0.63948
H         12.55090       -3.93873        2.27428
H         11.05520       -3.01714        2.20608
H         12.25977       -1.01882        3.17424
H         13.73827       -1.97631        3.28726
H         12.53951       -3.62221        4.78765
H         11.07663       -2.64946        4.67358
H         12.28415       -0.71490        5.75433
H         13.74222       -1.69991        5.87842
H         12.48324       -3.36124        7.30797
H         11.04257       -2.35433        7.19782
H         12.27036       -0.47307        8.33411
H         13.71324       -1.47840        8.43967
H         11.00645       -2.12105        9.78243
H         12.45485       -1.51930       10.61571
H         12.45483       -3.13824        9.88497
H         12.46198       -5.68370        0.24338
H         13.72628       -5.03051       -0.81987
H         12.26052       -5.75252       -1.51832
H         11.75522       -1.56341       -2.36607
H         11.89993       -3.13614       -3.17279
H         13.32341       -2.39951       -2.39880
