22

C          1.33100        0.82176        0.78260
C          2.61953        0.10780        0.33758
C          2.82591       -1.25559        0.95623
C          2.46745       -2.42036        0.05905
C          0.94954       -2.70984       -0.08772
C          0.32920       -2.05663       -1.33310
C          0.66604       -4.21914       -0.08938
F          4.31101       -1.38616        1.09787
H          1.23781        1.81847        0.31073
H          1.32582        0.93320        1.87745
H          0.42920        0.24839        0.51959
H          3.47605        0.73010        0.64508
H          2.64787        0.10271       -0.79547
H          2.95884       -3.31191        0.48108
H          2.89216       -2.30961       -0.98602
H          0.46711       -2.28138        0.80920
H          0.73912       -2.50365       -2.25325
H          0.54266       -0.97944       -1.37855
H         -0.76700       -2.18834       -1.35179
H          1.19110       -4.71583       -0.92338
H         -0.41028       -4.43762       -0.19785
H          1.01475       -4.68152        0.84675
