62

N          2.18782        0.10469       -0.38170
C          3.47854        0.65581       -0.87963
Al         3.88501        2.54319       -0.21305
C          2.20286        3.68915       -0.49710
C          1.01659        3.59944        0.26691
C         -0.09459        4.42396        0.04757
C         -0.08827        5.39930       -0.96976
C          1.08238        5.49620       -1.75390
C          2.18274        4.66736       -1.51894
Si        -1.51301        6.57358       -1.26450
C         -0.87913        8.36893       -1.05994
C         -0.20301        8.60471        0.29616
C          0.58431        9.89497        0.45158
C         -0.15713       11.27983        0.36385
C         -1.40064       11.56533        1.28758
C         -1.27353       11.57684        2.86556
C         -0.25875       12.58238        3.53029
C         -0.52074       12.83587        5.06491
F         -0.64911       11.67604        5.73489
F          0.53079       13.51070        5.57193
F         -1.62671       13.57705        5.25798
F          0.99748       12.09777        3.41353
F         -0.32968       13.79227        2.91440
F         -2.52249       11.90055        3.31907
F         -0.98476       10.32368        3.29110
F         -1.89071       12.78117        0.91870
F         -2.35741       10.63258        1.01201
F          0.74764       12.27579        0.59686
F         -0.62250       11.43713       -0.90956
F          1.23544        9.89112        1.66851
F          1.56172        9.97693       -0.51300
C         -2.19226        6.43971       -3.02729
C         -2.92326        6.28337       -0.03333
C          4.49233        2.56459        1.72752
C          3.57130        1.93807        2.78348
C          4.16558        1.88822        4.20016
H          1.89404       -0.71512       -0.92066
H          1.45103        0.79964       -0.51582
H          3.54619        0.64923       -1.98936
H          4.28949       -0.01116       -0.53004
H          5.04828        3.21371       -1.17385
H          0.95375        2.86549        1.07787
H         -0.97837        4.30716        0.68403
H          1.13903        6.23766       -2.56048
H          3.07281        4.78767       -2.14620
H         -1.71327        9.06906       -1.21998
H         -0.15363        8.55129       -1.86840
H          0.54709        7.81751        0.48063
H         -0.92415        8.54696        1.12372
H         -1.38695        6.56487       -3.76524
H         -2.96019        7.20178       -3.22833
H         -2.64058        5.44985       -3.19384
H         -2.58584        6.37680        1.00866
H         -3.34671        5.27567       -0.15184
H         -3.73458        7.00902       -0.19316
H          4.72880        3.60642        2.02017
H          5.46676        2.03528        1.74566
H          3.29217        0.91585        2.47492
H          2.62038        2.49888        2.82597
H          5.09869        1.30213        4.20847
H          3.47599        1.43370        4.93248
H          4.41629        2.90066        4.55599
