52

C          0.94431       -0.59950       -0.29433
C          2.47384       -0.54704       -0.34614
C          3.01832        0.73581       -0.98219
C          4.54690        0.78888       -1.06868
C          5.08178        2.06876       -1.71753
C          6.60917        2.07633       -1.85157
C          7.20079        3.22538       -2.69493
C          6.78593        3.09247       -4.24090
O          6.23639        2.01181       -4.58914
O          7.09796        4.08211       -4.95674
C          6.73108        4.61599       -2.20366
C          7.08925        5.01742       -0.76646
C          6.56045        6.40771       -0.39718
C          6.90673        6.85442        1.02626
C          6.36825        8.24450        1.37627
C          8.74981        3.16744       -2.65947
C          9.38566        1.93918       -3.32317
C         10.91471        2.01545       -3.37563
C         11.55744        0.79607       -4.04294
H          0.58044       -1.53030        0.16581
H          0.51329       -0.53592       -1.30491
H          0.53782        0.24193        0.28756
H          2.85284       -1.41720       -0.90882
H          2.88087       -0.64762        0.67503
H          2.65070        1.60773       -0.41084
H          2.59951        0.84289       -1.99832
H          4.90445       -0.07880       -1.65087
H          4.97370        0.67364       -0.05431
H          4.73698        2.93835       -1.12967
H          4.66005        2.16494       -2.73004
H          6.89844        1.13085       -2.33381
H          7.06495        2.07945       -0.84030
H          5.63510        4.67941       -2.32027
H          7.14225        5.35046       -2.91422
H          8.18406        5.00753       -0.62849
H          6.68582        4.28030       -0.04813
H          5.46302        6.42518       -0.52563
H          6.95673        7.14717       -1.11600
H          8.00288        6.84132        1.15373
H          6.51117        6.11525        1.74415
H          6.77840        9.00980        0.69953
H          6.62373        8.53760        2.40561
H          5.27212        8.27915        1.28141
H          9.10707        3.22435       -1.61263
H          9.11722        4.06844       -3.17945
H          8.98700        1.83678       -4.34526
H          9.09225        1.01988       -2.78748
H         11.31623        2.12899       -2.35248
H         11.20942        2.92923       -3.91992
H         11.30671       -0.12955       -3.50158
H         12.65502        0.87581       -4.07898
H         11.19446        0.67791       -5.07495
