28

N          4.55025       -0.46775        2.65233
C          4.35324       -0.01480        1.25557
C          4.84282       -1.05932        0.25312
C          4.68399       -0.65028       -1.20279
P          5.21027       -2.08677       -2.43917
C          4.35122       -1.03316       -3.88915
O          4.88020       -1.46323       -5.20625
C          4.44397       -0.83040       -6.27164
F          4.71076        0.52671       -6.29256
F          5.03866       -1.35136       -7.38399
F          3.08125       -0.92141       -6.48306
C          6.96816       -1.30275       -2.77716
H          4.38483        0.30590        3.29952
H          5.53130       -0.73093        2.77355
H          4.86008        0.94801        1.03962
H          3.27353        0.15717        1.10790
H          4.30845       -2.00950        0.43033
H          5.90988       -1.27205        0.45760
H          5.26191        0.26647       -1.41573
H          3.62100       -0.43731       -1.41674
H          5.49466       -3.16351       -3.41486
H          3.87600       -2.72479       -2.14842
H          5.81982       -2.89234       -1.34299
H          4.54611        0.04566       -3.79506
H          3.26813       -1.23174       -3.88527
H          6.96934       -0.49501       -3.52708
H          7.62145       -2.11129       -3.13887
H          7.38859       -0.90740       -1.83832
