28

O          2.52002        1.35545       -0.82589
C          2.51652        0.33523       -0.10214
O          2.18188        0.15222        1.08294
C          3.01862       -0.99243       -0.90311
C          2.85871       -2.33544       -0.16434
C          1.39549       -2.90353        0.06463
F          0.49072       -1.98845        0.42637
F          0.93855       -3.51058       -1.06879
F          1.43100       -3.86130        1.02537
F          3.47340       -3.37708       -0.86770
F          3.45113       -2.31734        1.05945
C          2.50920       -0.98644       -2.35508
C          0.99851       -0.73122       -2.53372
C          0.72001       -0.38120       -4.00177
C         -0.75512       -0.26965       -4.32355
C         -1.06401        0.10013       -5.80745
F         -0.51858        1.29531       -6.13174
F         -0.55548       -0.83218       -6.65066
F         -2.39453        0.17681       -6.03165
F         -1.41256       -1.46049       -4.09086
F         -1.37559        0.68564       -3.55523
I          5.23907       -0.74655       -1.05601
H          2.80977       -1.90879       -2.87819
H          3.03026       -0.14601       -2.83150
H          0.70488        0.11336       -1.89753
H          0.40171       -1.60567       -2.25204
H          1.14037       -1.14637       -4.67369
H          1.19498        0.57815       -4.25715
