24

O          7.11657       -3.20054       -1.03919
C          7.68095       -2.10725       -1.67117
O          8.89169       -1.97797       -1.63218
C          6.70763       -1.18933       -2.32415
Al         5.22765       -0.56081       -1.09228
C          5.79963        0.56873        0.46974
C          6.96678        1.32257        0.21280
C          7.52638        2.19816        1.14661
C          6.91846        2.35737        2.39453
C          5.76487        1.63538        2.68644
C          5.20959        0.74478        1.74824
C          3.96442        0.03913        2.23955
O          3.34078        0.43040        3.21511
O          3.53817       -1.07170        1.60216
Br         3.58458        0.50971       -2.40408
H          6.14758       -3.04541       -0.97177
H          6.11398       -1.75097       -3.06521
H          7.24528       -0.39033       -2.84820
H          4.61597       -1.99273       -0.51468
H          7.46964        1.21541       -0.75314
H          8.43549        2.75212        0.90027
H          7.34224        3.03720        3.13683
H          5.26156        1.74075        3.64851
H          4.11031       -1.34271        0.83100
