30

N          1.35197       -0.54521        0.36654
C          2.62950       -0.03831       -0.14392
C          3.03434        1.32313        0.48700
C          2.34547        2.49961       -0.24280
C          0.77272        2.67980       -0.32926
C         -0.08346        2.84267        0.97768
F          0.29031        3.93164        1.67012
F         -1.38307        3.03501        0.59074
F         -0.05843        1.77227        1.77036
F          0.56115        3.85015       -1.02679
F          0.22107        1.68395       -1.06784
F          2.80423        3.71961        0.18846
F          2.69809        2.45284       -1.60437
C          2.83339        1.29757        2.09019
O          2.88881        0.14880        2.59570
O          2.73816        2.41364        2.65389
C          4.57961        1.45713        0.28074
C          5.25489        2.64007        0.98847
C          6.72058        2.41931        1.27927
O          7.47992        1.68882        0.68255
O          7.21063        3.18218        2.32040
H          1.50917       -0.73657        1.36313
H          1.12921       -1.42672       -0.09583
H          2.55964        0.06753       -1.23846
H          3.47127       -0.72498        0.06140
H          4.82233        1.46141       -0.79250
H          5.00155        0.53051        0.69216
H          4.70155        2.86249        1.91818
H          5.19390        3.55790        0.38157
H          6.45280        3.62853        2.73871
