37

N          3.63171        2.60829       -0.63094
C          4.70333        2.02833       -1.25380
O          5.07253        2.39034       -2.37274
C          5.41294        0.92591       -0.47193
C          4.83930        0.50589        0.88936
B          5.69110       -0.70952        1.54906
S          4.63053       -1.61473        2.90788
O          3.23985       -1.80429        2.46951
O          5.33417       -2.76253        3.49661
C          4.42032       -0.44347        4.42021
F          3.84118        0.73624        4.06432
F          3.62778       -1.02471        5.34987
F          5.60547       -0.15126        5.00827
C          7.15720       -0.37178        2.13041
C          7.57464        0.94476        2.39903
C          8.85699        1.22974        2.88394
C          9.77512        0.20251        3.11438
C          9.37987       -1.11260        2.85391
C          8.09795       -1.39253        2.36822
C         10.36949       -2.22936        3.04452
F         11.31596       -1.93756        3.98692
F          9.78603       -3.39595        3.42117
F         11.06203       -2.50286        1.89037
C          9.28742        2.65144        3.11831
F          8.24157        3.50514        3.27846
F         10.07634        2.78285        4.22779
F         10.02919        3.14559        2.07438
H          3.10490        3.31112       -1.13342
H          3.29158        2.25659        0.25543
H          6.46026        1.25834       -0.37878
H          5.45543        0.05769       -1.14906
H          3.79979        0.16148        0.76096
H          4.79972        1.38166        1.56317
H          5.74054       -1.68146        0.80295
H          6.88225        1.77249        2.23823
H         10.77164        0.41998        3.49616
H          7.80603       -2.42780        2.18734
