40

C          2.56522        0.16298       -0.90951
C          2.39670       -0.16228        0.58019
C          3.38420       -1.22954        1.06214
Ta         5.55841       -0.85972        0.89937
C          6.75041        0.36448       -0.57190
C          7.20580        1.63967       -0.14738
C          8.01193        2.45240       -0.95276
C          8.39550        2.03043       -2.23226
C          7.96176        0.78428       -2.67873
C          7.15996       -0.03089       -1.85935
C          8.37085        0.28134       -4.03463
F          9.03754        1.21568       -4.77677
F          9.20203       -0.80479       -3.95549
F          7.30405       -0.11883       -4.78772
C          8.46675        3.81023       -0.49596
F          8.19447        4.06120        0.80932
F          9.81841        3.98570       -0.65536
F          7.88126        4.82369       -1.21615
C          6.79927       -1.00110        2.68324
C          7.94463       -1.98476        2.89127
N          9.07854       -1.66415        1.99643
H          1.82652        0.90342       -1.25592
H          2.45509       -0.74207       -1.52655
H          3.56777        0.57425       -1.10753
H          1.34895       -0.47990        0.75654
H          2.55257        0.75963        1.16412
H          3.16093       -2.20024        0.58884
H          3.28224       -1.38700        2.15718
H          5.57416       -1.85947       -0.60114
H          4.80817        0.74988        1.41678
H          5.46564       -2.63280        1.27450
H          6.91130        2.01302        0.83543
H          9.02033        2.66180       -2.86299
H          6.83541       -1.00559       -2.23044
H          6.00741       -1.18405        3.43984
H          7.15915        0.03706        2.85585
H          7.54843       -3.00821        2.74568
H          8.34169       -1.93421        3.92388
H          8.75217       -1.64847        1.02690
H          9.78195       -2.40390        2.04635
