25

C          0.92593        0.28292        0.47515
C          2.35473        0.25605       -0.07103
C          2.51116       -0.65073       -1.30388
Ta         2.45558        0.38180       -3.23865
S          3.80599        0.18807       -5.38141
O          3.76419       -1.02107       -6.23867
O          3.33997        1.46272       -6.00972
C          5.61360        0.45825       -5.16714
Cl         0.61291        1.80380       -2.85444
C          3.96166       -0.95809       -1.66172
H          0.84421        0.93100        1.36112
H          0.60385       -0.72924        0.76755
H          0.22498        0.65379       -0.28511
H          3.03965       -0.08405        0.73346
H          2.67297        1.29058       -0.29944
H          1.92072       -1.56762       -1.18713
H          3.86615        1.47819       -3.19768
H          2.49092       -1.33773       -3.60563
H          1.56890       -0.09156       -4.67102
H          6.04567       -0.40631       -4.64641
H          5.77339        1.38418       -4.60506
H          6.01928        0.52896       -6.18511
H          4.67749       -0.53458       -0.93828
H          4.31077       -0.48207       -2.64335
H          4.15821       -2.02504       -1.80987
