35

C          5.85502        4.25146        1.26295
C          5.63028        2.92832        0.50791
C          5.90954        2.98494       -0.99641
In         5.51044        1.02965       -2.09545
C          6.41814       -0.65248       -0.87106
C          5.47762       -1.18750        0.21455
C          6.06792       -2.33276        1.05828
C          5.11791       -2.88480        2.12346
N          5.78359       -3.91122        2.92376
C          5.15311       -4.58958        3.94609
N          3.90589       -4.55839        4.28192
N          6.03696       -5.40312        4.68500
N          3.37768        0.56380       -1.94113
H          5.64863        4.16077        2.34450
H          5.20387        5.04501        0.86268
H          6.89512        4.59629        1.14725
H          4.58825        2.60318        0.68190
H          6.26043        2.15058        0.97593
H          6.95786        3.28837       -1.17087
H          5.27850        3.76270       -1.46342
H          5.96670        1.07539       -3.82072
H          7.35483       -0.28950       -0.41052
H          6.70132       -1.47313       -1.55299
H          4.53644       -1.53123       -0.24941
H          5.18728       -0.37080        0.90084
H          6.98772       -1.96886        1.55446
H          6.37845       -3.15619        0.39292
H          4.23468       -3.33499        1.64116
H          4.75158       -2.05981        2.76530
H          6.78050       -3.76237        3.05381
H          3.40501       -3.84049        3.75213
H          6.67774       -5.93872        4.10285
H          5.50608       -6.00927        5.30574
H          2.83751        1.25593       -2.47105
H          3.08423        0.72003       -0.96983
