88

C         17.04337       -5.20145       -1.09150
C         16.66658       -4.32514        0.10493
C         15.18878       -4.42862        0.49440
C         14.81051       -3.56983        1.70426
C         13.33356       -3.66737        2.09778
C         12.96843       -2.82630        3.32434
C         11.48703       -2.90646        3.71388
C         11.13009       -2.07565        4.95552
Si         9.29592       -2.08228        5.47164
C          9.07314       -0.99415        6.98728
C          9.68661        0.27383        7.05921
C          9.51610        1.10202        8.17176
C          8.71546        0.72732        9.26928
C          8.10297       -0.53748        9.18888
C          8.27772       -1.37995        8.08412
Ga         8.52526        1.99748       10.82705
C          7.05272        3.44564       10.38047
C          5.67309        3.11554        9.74216
C          4.73892        2.17906       10.57844
C          3.34380        1.84248        9.93513
F          2.58132        2.94319        9.77880
F          3.46978        1.23551        8.74034
F          2.67968        0.99710       10.76203
F          5.36067        0.98728       10.78507
F          4.46604        2.74562       11.78741
F          4.95070        4.26526        9.48823
F          5.88940        2.50441        8.53706
F          6.76348        4.23603       11.50465
F          7.61139        4.33624        9.45339
C          8.14557        1.07557       12.58283
C          8.67773       -0.20256       12.84669
C          8.52782       -0.82979       14.08671
C          7.82737       -0.20860       15.14054
C          7.28749        1.06714       14.88447
C          7.44619        1.68761       13.64165
Si         7.68196       -1.03304       16.81359
C          9.36370       -0.89332       17.71249
C          9.42827       -1.60445       19.06826
C         10.75373       -1.45954       19.78465
F         11.05863       -0.16135       20.06645
F         10.75168       -2.12560       20.98237
F         11.79709       -1.96166       19.06625
C          6.35935       -0.19798       17.88082
C          7.25435       -2.86958       16.62830
C          8.25774       -1.42477        4.02654
C          8.75473       -3.86088        5.83843
H         18.10821       -5.10452       -1.34660
H         16.46042       -4.92761       -1.98395
H         16.84551       -6.26384       -0.88331
H         16.90866       -3.27207       -0.11776
H         17.28872       -4.60024        0.97353
H         14.94206       -5.48457        0.70521
H         14.56399       -4.14004       -0.36971
H         15.06153       -2.51486        1.49501
H         15.43585       -3.86251        2.56629
H         13.07745       -4.72432        2.29156
H         12.70739       -3.35722        1.24222
H         13.23442       -1.77081        3.13792
H         13.58521       -3.14477        4.18321
H         11.22107       -3.96483        3.88244
H         10.87761       -2.57822        2.85356
H         11.43106       -1.02546        4.79570
H         11.72240       -2.42053        5.82084
H         10.31564        0.62436        6.23345
H         10.02267        2.07213        8.18833
H          7.46814       -0.88309       10.01061
H          7.78220       -2.35595        8.08088
H          9.81163        2.93068       10.92607
H          9.23206       -0.72710       12.06190
H          8.96595       -1.82361       14.23133
H          6.73108        1.59130       15.66802
H          7.01300        2.68093       13.49849
H          9.58704        0.17828       17.83430
H         10.13864       -1.29278       17.03962
H          9.25431       -2.68572       18.96230
H          8.66454       -1.22156       19.76234
H          6.60019        0.85763       18.07116
H          6.25468       -0.69859       18.85482
H          5.37978       -0.23129       17.38309
H          8.00747       -3.39742       16.02581
H          6.28710       -2.98349       16.11856
H          7.18283       -3.37808       17.60121
H          8.54451       -0.39242        3.77859
H          7.19164       -1.41271        4.29466
H          8.37337       -2.03825        3.12054
H          9.33961       -4.29468        6.66213
H          8.88386       -4.50232        4.95440
H          7.69386       -3.90297        6.12407
