28

N          3.55034        1.23227        1.29383
C          2.51199        0.47296        0.56686
Ta         3.05195        2.09895       -0.79724
C          1.80640        3.72249       -1.66618
O          1.42205        3.66801       -3.14251
C          0.65600        4.62672       -3.58542
F         -0.58643        4.72974       -2.96861
F          1.18742        5.90785       -3.48274
F          0.39376        4.44056       -4.91694
C          5.31342        2.19267       -0.83860
C          6.07882        0.86773       -1.01502
C          5.91049        0.23826       -2.40443
H          4.41350        0.74128        1.52072
H          3.22958        1.79216        2.07710
H          1.54066        0.46131        1.07727
H          2.83471       -0.55385        0.35250
H          1.99835        1.10129       -1.83972
H          2.52167        3.40340        0.38300
H          3.51398        2.21074       -2.51490
H          2.30137        4.70114       -1.53288
H          0.84487        3.77529       -1.12512
H          5.60022        2.62958        0.14171
H          5.65605        2.89700       -1.61616
H          5.75066        0.12764       -0.25678
H          7.16388        0.99860       -0.82319
H          4.85199        0.05032       -2.63327
H          6.46690       -0.70939       -2.49139
H          6.27916        0.92259       -3.18362
