38

C          1.00422        0.47299       -1.20011
C          2.52550        0.32061       -1.12017
C          3.00401       -1.13064       -1.23183
C          4.52313       -1.29705       -1.12317
C          5.01106       -2.74719       -1.24091
C          6.53021       -2.91689       -1.08129
B          7.15245       -4.44009       -1.22650
C          6.61755       -5.36636        0.01275
F          6.66816       -4.74144        1.25957
F          5.28349       -5.79248       -0.07790
F          7.31449       -6.55525        0.22404
C          6.82864       -5.15672       -2.68751
C          7.17887       -4.25240       -3.89286
C          8.66061       -3.87232       -4.02240
C          7.47651       -6.54178       -2.86814
H          0.69073        1.52485       -1.12073
H          0.50843       -0.08526       -0.39100
H          0.61602        0.07962       -2.15240
H          2.88762        0.74697       -0.16866
H          2.99855        0.91976       -1.91730
H          2.65732       -1.55354       -2.19235
H          2.51650       -1.73477       -0.44552
H          4.86355       -0.88250       -0.15636
H          5.01408       -0.68377       -1.90160
H          4.68722       -3.14911       -2.21883
H          4.48941       -3.35916       -0.48494
H          6.81853       -2.50392       -0.09678
H          7.02830       -2.26030       -1.82158
H          8.37446       -4.38023       -1.03923
H          5.73323       -5.31599       -2.75123
H          6.58544       -3.32445       -3.83320
H          6.86456       -4.75329       -4.83162
H          9.01137       -3.35434       -3.11926
H          8.83000       -3.21378       -4.88973
H          9.29537       -4.76177       -4.15410
H          8.56659       -6.50115       -2.71087
H          7.30052       -6.95340       -3.88174
H          7.08416       -7.26653       -2.14186
