46

C          0.80086       -0.18147        0.02383
O          2.16416       -0.25757       -0.33350
C          2.75818       -1.49140        0.06418
C          4.22246       -1.48472       -0.35347
O          4.83084       -2.61238        0.23524
C          6.24886       -2.67114       -0.03088
C          6.86288       -3.74378        0.86322
C          8.40019       -3.65814        1.06013
C          9.11392       -3.30867       -0.33014
O          9.95048       -2.36735       -0.31560
O          8.76478       -4.04460       -1.29350
C          8.82780       -2.69106        2.18985
C          8.41386       -1.20017        2.12799
C          7.07235       -0.91338        2.82252
C          9.52010       -0.32783        2.73738
C          8.85719       -5.08932        1.44400
C         10.36333       -5.28719        1.66462
C         10.68116       -6.76430        1.87867
S         12.41351       -7.13573        2.36372
H          0.44059        0.81307       -0.27131
H          0.65534       -0.30605        1.11510
H          0.19502       -0.95139       -0.49415
H          2.22591       -2.34425       -0.40164
H          2.69544       -1.61574        1.16303
H          4.69844       -0.54708       -0.00027
H          4.30895       -1.50182       -1.45896
H          6.68309       -1.67618        0.16396
H          6.43332       -2.91016       -1.09151
H          6.61814       -4.72238        0.42390
H          6.36331       -3.70252        1.84732
H          9.92545       -2.71140        2.20355
H          8.48819       -3.10450        3.16239
H          8.34931       -0.91971        1.06563
H          7.13677       -1.15019        3.89830
H          6.24312       -1.50240        2.40930
H          6.79843        0.15046        2.73539
H          9.71316       -0.60513        3.78819
H          9.24877        0.74038        2.72149
H         10.45235       -0.45549        2.17056
H          8.53551       -5.74565        0.61969
H          8.31647       -5.41239        2.35663
H         10.72107       -4.71410        2.53299
H         10.91307       -4.91008        0.78698
H         10.43090       -7.35624        0.98711
H         10.09361       -7.17365        2.71606
H         13.00679       -6.54350        1.30040
