53

N         12.29261        3.27507       -5.01186
C         11.08635        3.76807       -5.69865
C          9.92153        2.78370       -5.56408
C          9.40176        2.56707       -4.13396
C          8.18319        1.63909       -4.04325
Ga         7.35131        1.60335       -2.17735
C          8.33235        0.41831       -0.85754
C          9.50791        0.88371       -0.23153
C         10.20265        0.13083        0.71508
C          9.72431       -1.13890        1.07977
C          8.56136       -1.63575        0.47257
C          7.88857       -0.86590       -0.48097
C         10.45923       -1.94184        2.10941
C         10.34759       -1.46991        3.61156
C          8.93509       -1.35850        4.30118
C          8.03303       -2.63856        4.54627
C          8.62677       -3.82616        5.39278
C          7.54314       -4.83354        5.93828
F          6.72406       -5.25207        4.95726
F          8.18127       -5.90918        6.44980
F          6.80539       -4.28304        6.91895
F          9.48229       -4.54313        4.62680
F          9.29352       -3.34841        6.47696
F          6.93506       -2.17553        5.21730
F          7.62060       -3.12993        3.35564
F          9.15321       -0.79807        5.52929
F          8.16544       -0.50406        3.58450
F         11.11024       -2.29167        4.39792
F         10.88049       -0.21658        3.69579
F         10.08737       -3.26762        2.09805
F         11.82662       -1.91895        1.87486
C          5.34905        1.01331       -2.33895
C          5.16569       -0.29639       -2.97977
O          4.81870       -1.34288       -2.45228
O          5.46711       -0.33596       -4.34099
H         13.08307        3.89863       -5.17942
H         12.55578        2.36384       -5.39272
H         11.25414        3.97934       -6.77577
H         10.80566        4.72589       -5.22851
H         10.21940        1.81127       -6.00059
H          9.09152        3.14916       -6.19350
H          9.14958        3.55306       -3.70331
H         10.22013        2.17375       -3.50998
H          8.45690        0.62162       -4.37056
H          7.41497        2.00239       -4.75705
H          7.32497        3.10051       -1.59123
H          9.89316        1.87645       -0.48354
H         11.11412        0.52202        1.17014
H          8.18640       -2.62413        0.74049
H          6.98490       -1.28260       -0.93435
H          4.92508        1.82592       -2.94659
H          4.90021        1.01871       -1.34025
H          5.91411        0.50178       -4.56211
