16

O          1.84340       -1.15955        0.32426
C          1.89048       -0.68169       -0.95612
O          1.17018       -1.18050       -1.80699
C          2.84005        0.44893       -1.21198
Nb         5.00838        0.26851       -0.62999
S          6.24216        0.70189        1.47320
O          7.68656        0.56055        1.27711
O          5.75707        1.84161        2.24865
F          5.91812       -0.60852        2.50093
Cl         5.90575       -1.46589       -1.84883
H          2.62646       -0.75768        0.78336
H          2.56664        1.31164       -0.57503
H          2.73741        0.74799       -2.26191
H          4.01097       -0.11191        0.78625
H          4.75552        1.64197       -1.66604
H          6.02005        1.69568       -0.54300
