17

O          2.99461        0.01988        1.57837
Nb         2.73685        0.53208       -0.26492
S          4.47530        0.58077       -2.12880
O          5.61456        1.21933       -1.42339
O          4.77822       -0.58881       -2.96588
C          3.99721        1.89677       -3.55957
C          4.71082        3.27217       -3.52815
F          6.03978        3.12681       -3.71453
F          4.25110        4.07417       -4.54408
F          4.50047        3.93276       -2.37944
F          4.26994        1.34529       -4.77652
F          2.64597        2.11909       -3.49919
F          2.75571        2.43217       -0.55231
H          3.57181       -0.71221        1.83130
H          3.92080       -0.77091       -0.47720
H          1.00956        0.15980       -0.38364
H          2.27288       -0.66407       -1.46799
