41

C          1.24740       -0.78750       -0.55994
C          2.74403       -0.62652       -0.27014
C          3.09089       -0.69117        1.22802
C          4.57138       -0.56728        1.55074
Sb         5.01978       -0.51350        3.81174
C          4.49096       -2.81255        3.91282
C          5.62107       -3.81839        4.15670
C          6.33081       -3.70939        5.51325
C          3.33727       -2.99038        4.89036
C          7.27933       -0.85196        3.38940
C          7.87868       -0.26970        2.10517
C          7.90735        1.25773        2.11646
S          8.47030        2.02711        0.54830
H          1.02216       -0.70776       -1.63490
H          0.65896       -0.01802       -0.03646
H          0.88185       -1.76721       -0.21428
H          3.09994        0.33518       -0.67810
H          3.31009       -1.40759       -0.80704
H          2.70012       -1.64260        1.63448
H          2.52651        0.09949        1.75683
H          4.99216        0.35809        1.12311
H          5.13657       -1.42058        1.13877
H          5.29457        1.27898        3.73459
H          5.39462       -0.49607        5.58204
H          3.26883       -0.20346        4.14943
H          4.11867       -2.97659        2.88690
H          6.37223       -3.73558        3.35319
H          5.21481       -4.85175        4.06915
H          6.79137       -2.72106        5.64473
H          7.11996       -4.47218        5.60916
H          5.62788       -3.85466        6.34677
H          3.60857       -2.66321        5.90891
H          3.00849       -4.04798        4.96486
H          2.46719       -2.38923        4.59019
H          7.43422       -1.94067        3.40154
H          7.77618       -0.43902        4.28393
H          7.31010       -0.60453        1.22334
H          8.91687       -0.63007        1.94262
H          8.53281        1.63375        2.93866
H          6.89627        1.66147        2.27318
H          9.67011        1.39921        0.48280
