50

S          3.34113        3.12140        1.37193
C          3.82849        1.51314        0.59860
C          4.42094        1.74182       -0.79539
C          4.85026        0.43205       -1.47032
Al         5.61709        0.54384       -3.35778
C          4.39525        1.75813       -4.46992
C          4.58523        3.14960       -4.61078
C          3.72963        3.95230       -5.37691
C          2.63372        3.38991       -6.04190
C          2.42142        2.01633       -5.92460
C          3.28971        1.22246       -5.15572
C          1.25459        1.36773       -6.61474
F          0.54808        2.22962       -7.40508
F          1.63760        0.33218       -7.42192
F          0.35485        0.83729       -5.72912
C          3.97904        5.42478       -5.54140
F          4.90382        5.91462       -4.67463
F          4.43055        5.73738       -6.80152
F          2.84312        6.17067       -5.36497
C          7.52831        1.24172       -3.40471
C          7.96978        2.25391       -2.33939
C          9.45735        2.63018       -2.40857
C          9.91222        3.58131       -1.30250
N         11.34286        3.84915       -1.41463
C         12.01758        4.63186       -0.49678
N         11.52791        5.33585        0.46811
N         13.41221        4.61188       -0.69247
H          2.87156        2.61792        2.53747
H          2.93738        0.87405        0.52960
H          4.56611        1.02203        1.24840
H          5.27717        2.43284       -0.70549
H          3.67411        2.26397       -1.41785
H          3.97977       -0.24903       -1.52336
H          5.58828       -0.08716       -0.82817
H          5.52791       -0.93734       -4.06311
H          5.42992        3.63158       -4.11224
H          1.96357        4.00898       -6.63697
H          3.10077        0.14569       -5.10091
H          7.73089        1.65902       -4.40994
H          8.17981        0.34916       -3.33127
H          7.75780        1.85249       -1.33186
H          7.37218        3.18075       -2.41648
H          9.67746        3.08152       -3.39077
H         10.05496        1.70128       -2.35156
H          9.66580        3.14683       -0.31381
H          9.36725        4.53688       -1.37899
H         11.88435        3.08018       -1.80060
H         10.52536        5.16103        0.57587
H         13.68692        4.70071       -1.66861
H         13.85238        5.32463       -0.11561
