38

C          2.26870       -0.58900       -0.29603
C          0.86778       -0.13670        0.03678
C         -0.25300       -0.83637       -0.43115
C         -1.54810       -0.43069       -0.10595
C         -1.77470        0.68393        0.72048
C         -0.64831        1.38465        1.19178
C          0.64292        0.98668        0.84684
C         -3.15032        1.11248        1.10996
S         -4.06302        0.09804        2.14284
O         -3.18319       -0.95973        2.62693
O         -4.93011        0.81013        3.06326
C         -5.34767       -0.86538        1.07453
C         -6.00051       -2.12645        1.76529
C         -5.33212       -3.51884        1.46809
F         -5.54397       -3.89146        0.18610
F         -4.01693       -3.53030        1.70805
F         -5.91589       -4.45336        2.26281
F         -6.03906       -1.96377        3.11109
F         -7.29548       -2.25225        1.32991
F         -6.34915       -0.01493        0.74323
F         -4.75887       -1.28779       -0.09102
S         -3.71223        2.65595        0.64071
O         -4.99690        3.00473        1.21876
O         -2.62289        3.62619        0.62063
C         -4.10106        2.47912       -1.23198
C         -4.59028        3.77530       -1.95032
F         -5.71755        4.25718       -1.39580
F         -3.65211        4.74068       -1.93329
F         -4.86375        3.49737       -3.25904
F         -2.98136        2.05698       -1.88994
F         -5.07214        1.53912       -1.40402
H          2.27714       -1.25189       -1.17254
H          2.71925       -1.14668        0.54142
H          2.92921        0.26456       -0.50775
H         -0.11088       -1.70990       -1.07353
H         -2.40046       -0.98515       -0.49636
H         -0.80097        2.25692        1.82608
H          1.49650        1.55625        1.22499
