44

C          1.69983        0.57633       -0.13618
C          3.04225        0.21573        0.50899
C          3.38003       -1.28318        0.42469
C          4.71879       -1.68349        1.04119
Nb         5.17057       -3.80048        1.40412
C          3.71591       -4.43128        3.01281
C          3.57265       -5.84960        3.59604
F          4.80351       -6.37268        3.86517
F          2.86924       -5.89282        4.77127
F          2.94639       -6.68631        2.74148
F          4.13044       -3.63483        4.13224
F          2.41477       -3.99509        2.74192
C          7.21250       -3.81025        2.23113
C          7.90895       -5.12588        2.57038
C          9.25028       -4.97383        3.30668
C          9.87221       -6.31224        3.70290
N         11.13464       -6.10783        4.40598
C         11.88645       -7.15638        4.89769
N         11.69754       -8.42398        4.73972
N         12.98517       -6.71884        5.66325
H          1.47778        1.65150       -0.05665
H          0.87210        0.02895        0.34066
H          1.69040        0.31175       -1.20485
H          3.03767        0.52347        1.56889
H          3.85231        0.79380        0.03087
H          3.37092       -1.59880       -0.63209
H          2.55888       -1.84556        0.90658
H          4.79010       -1.29549        2.08669
H          5.56060       -1.23334        0.48067
H          4.78641       -3.70754       -0.30359
H          4.28894       -5.19162        0.77363
H          6.09141       -4.85672        0.35000
H          7.08425       -3.19882        3.15525
H          7.83282       -3.20895        1.53762
H          8.06683       -5.69429        1.63910
H          7.24541       -5.75176        3.19301
H          9.09422       -4.36584        4.21722
H          9.96018       -4.41360        2.67430
H         10.06646       -6.91722        2.80148
H          9.15530       -6.88219        4.32595
H         11.18120       -5.25349        4.95436
H         10.79965       -8.60487        4.28348
H         13.50351       -5.95669        5.23148
H         13.59103       -7.50794        5.87404
