29

S          1.43117       -0.92109       -0.42281
Ga         3.36664        0.31652        0.14074
C          4.37102        0.76056       -1.56424
C          5.58672        1.46794       -1.52541
C          6.26939        1.84420       -2.68932
C          5.76063        1.52783       -3.95649
C          4.54939        0.81985       -4.01341
C          3.87656        0.44762       -2.84485
C          6.48726        1.93659       -5.21615
C          4.42717       -0.86423        1.41715
C          4.27983       -2.36553        1.17067
C          4.99371       -3.19939        2.23493
S          4.89651       -5.02649        2.00228
H          0.66044        0.18459       -0.52655
H          2.88635        1.66862        0.85629
H          6.02029        1.74918       -0.55879
H          7.21181        2.39853       -2.61637
H          4.12701        0.55896       -4.99039
H          2.93092       -0.09986       -2.92016
H          7.41941        2.47011       -4.98125
H          5.87131        2.60113       -5.84349
H          6.74831        1.06417       -5.83653
H          4.08478       -0.61581        2.43660
H          5.49090       -0.57117        1.35857
H          4.66600       -2.64148        0.17606
H          3.20939       -2.63711        1.16832
H          4.61510       -2.95410        3.23780
H          6.07505       -2.99201        2.23196
H          3.54958       -5.08300        1.87395
