20

N          1.12653        0.08767       -0.69662
C          2.56481       -0.04506       -0.37267
C          2.76103       -0.66191        1.01940
N          4.15026       -0.60961        1.37742
C          4.75837       -1.59728        1.96435
C          4.63022       -1.90646        3.52048
C          3.20587       -2.18098        4.10399
F          2.57250       -3.20249        3.49411
F          3.30375       -2.50648        5.42878
F          2.40787       -1.09082        4.03409
F          5.39992       -2.97680        3.92843
F          5.09234       -0.81176        4.22512
F          4.47517       -3.00485        1.41672
F          6.17656       -1.49766        1.84052
H          1.00980        0.64378       -1.54521
H          0.67449        0.62003        0.05200
H          3.11796        0.91401       -0.38773
H          3.03425       -0.70181       -1.12180
H          2.34166       -1.68662        1.00474
H          2.11824       -0.07239        1.71909
