36

N          5.68275       -3.62623        1.95955
C          5.35220       -2.62066        1.07901
O          4.76155       -2.86497        0.02918
C          5.82208       -1.23674        1.51366
C          5.16345       -0.08335        0.75659
Ga         5.71434        1.72523        1.39023
S          5.32073        1.74218        3.87633
O          5.79665        0.51922        4.56149
O          5.67917        3.03707        4.48356
C          3.35660        1.73435        4.16702
C          2.60948        0.37838        4.36463
C          2.97722       -0.49093        5.63967
C          1.75002       -1.23460        6.28814
F          1.08303       -1.96548        5.37193
F          2.20777       -2.07788        7.24241
F          0.89378       -0.37897        6.87629
F          3.86034       -1.45815        5.29457
F          3.51994        0.28087        6.61420
F          1.26141        0.66166        4.43451
F          2.80023       -0.38968        3.26045
F          3.06318        2.54498        5.21510
F          2.81571        2.29537        3.03708
S          8.14204        1.78371        1.45997
O          8.67258        0.42273        1.19183
O          8.60722        2.86977        0.56596
C          8.76124        2.20860        3.11476
H          5.35855       -4.56477        1.76002
H          6.04989       -3.41837        2.87918
H          6.91569       -1.19920        1.37018
H          5.67015       -1.13986        2.60082
H          4.06717       -0.14784        0.82091
H          5.41122       -0.14372       -0.31367
H          5.18224        3.11946        0.92877
H          8.45403        1.42688        3.81910
H          8.35942        3.18359        3.41184
H          9.85435        2.24058        3.01129
