33

S          6.63386       -2.59107        1.18046
C          5.52091       -3.40061       -0.04906
C          4.48542       -2.39485       -0.55539
C          5.04616       -1.35600       -1.52219
Ta         5.82544       -1.26252       -3.53995
S          3.90098       -2.83658       -3.83252
O          4.42059       -4.12090       -3.32161
O          2.57385       -2.43792       -3.34558
F          3.57439       -3.19545       -5.43911
C          7.93490       -1.81207       -3.63127
C          8.42878       -2.96478       -2.98308
C          9.78225       -3.31489       -3.01955
C         10.71353       -2.52937       -3.71331
C         10.24285       -1.37095       -4.35300
C          8.89053       -1.02216       -4.30921
C         12.16913       -2.92359       -3.78857
H          7.70976       -3.39282        1.00756
H          5.02877       -4.25042        0.44181
H          6.12652       -3.78209       -0.87984
H          4.01249       -1.91115        0.32070
H          3.68852       -2.96410       -1.05584
H          5.93911       -0.85189       -1.07410
H          4.29952       -0.54530       -1.68417
H          5.97598       -2.34920       -4.91525
H          4.83550       -0.61532       -4.85281
H          6.06722        0.51090       -3.67262
H          7.74120       -3.63143       -2.45276
H         10.12247       -4.22290       -2.51136
H         10.94851       -0.73703       -4.89985
H          8.56962       -0.11237       -4.82552
H         12.36458       -3.83567       -3.20764
H         12.82722       -2.12987       -3.40169
H         12.47843       -3.11816       -4.82793
