25

N          0.82234        0.22815        0.28050
C          2.10254       -0.25040       -0.30869
C          3.02082        0.90236       -0.68397
Ga         4.77200        0.30876       -1.48690
C          6.00993       -0.26182        0.10569
C          7.16874       -1.24349       -0.16837
F          8.01891       -0.74935       -1.10011
F          7.91960       -1.52403        0.94200
F          6.69727       -2.43214       -0.62816
F          6.59760        0.83625        0.73713
F          5.24470       -0.89065        1.10278
C          5.71534        2.00244       -2.28411
C          5.28394        2.41809       -3.70666
F          3.93714        2.61002       -3.76698
F          5.86299        3.57844       -4.14083
F          5.60067        1.46129       -4.61467
F          5.46999        3.13185       -1.49221
F          7.10590        1.89200       -2.35029
H          0.15405       -0.54490        0.34146
H          0.40811        0.90926       -0.36073
H          1.93901       -0.89074       -1.19903
H          2.58637       -0.88629        0.45031
H          3.22196        1.53087        0.19745
H          2.52746        1.54879       -1.43145
H          4.70300       -0.84336       -2.57265
