18

N          3.03398        1.17342       -1.16617
C          2.34475        0.29564       -0.19345
In         3.10332        0.69496        1.88150
C          1.79856        2.40681        2.75426
F          0.41762        2.19070        2.73558
F          2.05707        2.74183        4.08860
F          1.94753        3.61921        2.08256
C          5.07966        1.75235        1.61021
N          5.88220        1.16263        0.50399
H          2.93977        0.82176       -2.12298
H          4.03692        1.21223       -0.96171
H          2.45162       -0.78636       -0.41376
H          1.26396        0.51506       -0.21078
H          3.07346       -0.66435        3.02693
H          5.63802        1.82576        2.56317
H          4.80715        2.77845        1.31786
H          6.02849        0.16640        0.66985
H          6.81890        1.57706        0.45687
