32

O          7.17606       -1.44009        1.55637
C          5.86791       -1.04762        1.77590
O          5.12235       -1.79775        2.35726
C          5.50494        0.31315        1.19429
C          4.49432        1.16657        1.92223
Ta         6.11445        2.64377        2.27746
S          3.97787        4.04729        2.22489
O          3.13089        4.13676        1.03228
O          3.29658        3.65902        3.47484
F          4.33558        5.67420        2.50571
C          8.25166        2.38354        1.56386
C          8.89694        2.92010        0.43137
C         10.26499        2.74834        0.20805
C         11.06302        2.02311        1.11106
C         10.47152        1.47183        2.24131
C          9.08944        1.65316        2.45250
C          8.37182        1.11061        3.61321
O          7.15314        1.30132        3.75975
O          8.99921        0.38366        4.55657
H          7.64860       -0.70580        1.12327
H          5.20431        0.15039        0.14668
H          6.49054        0.87986        1.03794
H          4.23387        0.76732        2.91573
H          3.59157        1.38604        1.35232
H          6.49140        4.23587        1.67843
H          5.94408        2.91745        0.53212
H          6.29161        3.82490        3.60488
H          8.29826        3.49255       -0.27950
H         10.73013        3.18644       -0.67868
H         12.13137        1.89702        0.93041
H         11.10130        0.91146        2.94466
H          9.93685        0.29778        4.30729
