49

N          5.37676       -0.17289       -2.74392
C          6.58633        0.62452       -2.40822
C          6.62523        0.52771       -0.88036
Ta         5.57873       -1.44833       -0.76892
S          3.61714        0.17124       -0.25839
O          3.93939        0.95443        0.97170
O          3.22423        1.01759       -1.44858
C          2.06194       -0.67566        0.16476
C          6.38893       -2.84456       -2.31183
C          7.76412       -3.17731       -2.23209
C          8.41178       -3.93432       -3.21387
C          7.71464       -4.43690       -4.33143
C          6.34389       -4.12150       -4.42272
C          5.71161       -3.34232       -3.44805
Si         8.58836       -5.52556       -5.57948
C          9.19949       -7.08865       -4.66565
C         10.07456       -8.03219       -5.49684
C         10.52926       -9.26990       -4.75218
F          9.48792      -10.05275       -4.35119
F         11.32961      -10.06010       -5.53505
F         11.25228       -8.97522       -3.63541
C          7.42436       -6.04957       -6.97772
C         10.08915       -4.64456       -6.33278
H          5.37879       -0.59734       -3.67102
H          4.51154        0.38318       -2.58579
H          6.53999        1.65001       -2.82260
H          7.45571        0.12822       -2.86712
H          6.16055        1.38581       -0.38146
H          7.63958        0.38558       -0.46668
H          6.69336       -2.35922        0.35672
H          4.58827       -2.03748        0.58709
H          4.05200       -2.02433       -1.49826
H          2.24964       -1.30686        1.03965
H          1.74762       -1.27982       -0.69301
H          1.33876        0.12002        0.38763
H          8.34245       -2.85359       -1.36115
H          9.47916       -4.15308       -3.08995
H          5.75601       -4.48939       -5.26987
H          4.64723       -3.11735       -3.56116
H          8.31050       -7.62254       -4.29453
H          9.75007       -6.75723       -3.77115
H         10.99068       -7.52996       -5.84266
H          9.54632       -8.39273       -6.39292
H          6.54883       -6.58951       -6.59039
H          7.93509       -6.70719       -7.69658
H          7.05844       -5.17487       -7.53398
H         10.79895       -4.33019       -5.55413
H          9.76830       -3.73977       -6.86872
H         10.62975       -5.28266       -7.04787
