40

N          3.61372        0.28424        0.38165
C          3.59235       -0.34016       -0.83476
O          3.08900        0.18642       -1.83192
C          4.22373       -1.72488       -0.84502
C          5.74338       -1.71856       -0.57502
P          6.23170       -2.34878        1.22120
C          5.36410       -4.05320        0.92024
C          5.72313       -4.91575       -0.11737
C          5.14354       -6.19100       -0.23268
C          4.18056       -6.61796        0.68338
C          3.82109       -5.76042        1.73032
C          4.41525       -4.49681        1.84661
C          2.76094       -6.18268        2.70695
F          2.61336       -7.54029        2.77728
F          3.01338       -5.75220        3.97571
F          1.52406       -5.68746        2.38025
C          5.53050       -7.07540       -1.38308
F          6.87565       -7.06864       -1.61779
F          5.17444       -8.38147       -1.19884
F          4.94303       -6.68601       -2.55942
C          7.23529       -0.74459        1.69489
O          6.32797        0.27035        2.26958
C          6.86809        1.39707        2.71041
F          7.75171        1.22855        3.74998
F          7.56059        2.10516        1.75719
F          5.87816        2.21205        3.16387
H          3.35240        1.26238        0.41620
H          4.15484       -0.10806        1.15084
H          3.98091       -2.17113       -1.81750
H          3.72195       -2.33241       -0.06612
H          6.15332       -0.70605       -0.70799
H          6.26168       -2.35801       -1.30521
H          6.52796       -2.87139        2.58580
H          4.93821       -1.80150        1.75241
H          7.52391       -2.88693        0.70694
H          6.47606       -4.59931       -0.84452
H          3.72892       -7.60417        0.59395
H          4.14952       -3.83836        2.68010
H          7.73739       -0.29693        0.82477
H          7.97041       -1.02183        2.46508
