45

C          3.02248       -3.02849       -1.53524
C          3.91157       -1.98377       -0.85449
C          4.55779       -1.00105       -1.83595
C          5.45088        0.05455       -1.17565
C          6.10045        1.03007       -2.17259
C          6.99140        2.09728       -1.54021
Nb         8.02539        3.70968       -2.71772
C          7.23449        5.72267       -3.19603
C          5.82698        6.05895       -2.76613
S          5.38944        7.84000       -3.07299
C          3.68207        7.86108       -2.44961
C         10.06982        3.47014       -3.52963
C         10.43213        3.08633       -4.95516
S          9.91774        4.41577       -6.10814
C         10.44402        3.68120       -7.68111
H          2.57618       -3.72549       -0.80986
H          3.59716       -3.62409       -2.26116
H          2.19946       -2.54770       -2.08609
H          4.70378       -2.49335       -0.27909
H          3.31779       -1.42001       -0.11445
H          3.76468       -0.49372       -2.41521
H          5.15125       -1.56739       -2.57662
H          6.24227       -0.45038       -0.59097
H          4.85557        0.62833       -0.44133
H          5.30770        1.52423       -2.76022
H          6.69020        0.45381       -2.90650
H          7.78970        1.61551       -0.93940
H          6.40764        2.69554       -0.80764
H          7.97608        2.28613       -3.77948
H          8.48957        3.90085       -0.94528
H          6.46014        3.39974       -3.48159
H          7.35926        5.84175       -4.28831
H          7.97204        6.39345       -2.70290
H          5.67572        5.88982       -1.68774
H          5.09968        5.44485       -3.31540
H          3.29299        8.88144       -2.56710
H          3.64372        7.58947       -1.38409
H          3.04115        7.17149       -3.01833
H         10.37901        2.64880       -2.84885
H         10.64347        4.36818       -3.21146
H          9.89049        2.17044       -5.23739
H         11.51560        2.92629       -5.12019
H         10.21412        4.40375       -8.47525
H          9.90162        2.74684       -7.88583
H         11.52648        3.48188       -7.68783
