30

N          5.31258        0.76370        1.45007
C          4.49777        1.65993        0.60319
C          4.87277        1.53465       -0.88216
C          4.56306        0.18981       -1.54919
In         5.29286        0.05052       -3.67982
C          3.86860        1.39829       -4.98245
C          3.24783        2.48653       -4.23426
O          3.53082        3.67734       -4.25038
O          2.21629        2.09646       -3.36347
C          7.33041        1.00966       -3.84250
C          7.29271        2.47632       -4.23563
N          8.66009        3.05549       -4.39874
H          5.13453        0.95381        2.43772
H          6.30200        0.97207        1.29422
H          4.58494        2.72601        0.90438
H          3.44049        1.37444        0.73689
H          5.95211        1.76716       -0.97325
H          4.35569        2.34867       -1.41560
H          3.47430        0.00527       -1.50886
H          5.02835       -0.63297       -0.98414
H          5.16832       -1.57466       -4.40611
H          3.14189        0.66087       -5.34663
H          4.47980        1.78503       -5.80379
H          2.24184        1.12489       -3.31611
H          7.94700        0.44361       -4.55869
H          7.80855        0.90209       -2.85100
H          6.68867        3.04610       -3.50395
H          6.78436        2.60296       -5.20526
H          9.17330        2.90934       -3.52516
H          8.58890        4.07180       -4.51230
