13

Cl         1.32250       -1.38563       -0.24479
P          2.88055        0.08856        0.51211
S          3.88548        0.41270       -1.75723
O          3.64059        1.81039       -2.19881
O          5.28415       -0.08960       -1.75996
C          3.05107       -0.60677       -3.03737
Cl         4.36777        1.50896        1.29394
H          3.83071       -0.97785        0.58228
H          2.04346        1.16706        0.08567
H          2.32502       -0.07345        1.81668
H          1.99505       -0.32284       -3.09074
H          3.15511       -1.66520       -2.77694
H          3.57755       -0.37073       -3.97174
