28

N          1.17878        0.39489       -0.43291
C          2.59693        0.25101       -0.06451
C          2.85988       -0.76779        1.06806
C          2.46723       -2.19840        0.70832
C          1.92631       -2.55963       -0.53827
C          1.62385       -3.89307       -0.83988
C          1.84046       -4.92066        0.08547
C          2.37026       -4.56066        1.33579
C          2.67638       -3.23599        1.64145
C          1.48954       -6.35593       -0.22777
C          2.09586       -0.35185        2.43785
O          1.05779        0.35703        2.30810
O          2.61191       -0.78826        3.49361
C          4.37909       -0.73293        1.34300
H          1.06079        1.26934       -0.94868
H          0.70619        0.51401        0.48279
H          3.04378        1.20667        0.27915
H          3.17568       -0.05919       -0.95815
H          1.69513       -1.77863       -1.26222
H          1.20231       -4.13599       -1.82091
H          2.54224       -5.33713        2.08826
H          3.05295       -2.96908        2.63080
H          1.33394       -6.50295       -1.30638
H          0.56355       -6.66901        0.28324
H          2.28276       -7.04716        0.09684
H          4.94718       -1.06780        0.45813
H          4.62565       -1.37139        2.19794
H          4.69541        0.29130        1.59522
