39

Cl         3.36308        1.93320        1.64054
Ga         2.90888        0.21867        0.15513
C          4.13196       -1.28875        0.76147
C          5.23780       -1.07941        1.60965
C          6.08896       -2.11634        1.99409
C          5.84655       -3.42524        1.54220
C          4.75359       -3.66808        0.69692
C          3.92475       -2.60928        0.31815
C          6.75321       -4.54393        1.95596
C          6.70569       -5.00251        3.46542
C          5.33629       -5.43792        4.11294
C          4.55051       -6.71408        3.59965
C          5.27858       -8.11031        3.62316
C          4.30302       -9.34535        3.52473
F          3.45464       -9.21805        2.48804
F          5.04343      -10.45931        3.33556
F          3.59150       -9.50674        4.65441
F          6.12909       -8.19461        2.57303
F          5.98052       -8.26092        4.77732
F          3.46198       -6.81581        4.42194
F          4.10607       -6.48828        2.34129
F          5.58971       -5.64718        5.44003
F          4.46022       -4.40953        4.01308
F          7.58004       -6.04151        3.64546
F          7.14312       -3.96454        4.23431
F          6.54325       -5.68362        1.21027
F          8.08581       -4.20168        1.77222
C          0.95599       -0.25066        0.34268
C          0.52680       -0.65220        1.75766
H          3.33350        0.75049       -1.28772
H          5.42986       -0.06844        1.98040
H          6.94555       -1.91302        2.63933
H          4.56079       -4.67793        0.33327
H          3.08558       -2.83122       -0.34924
H          0.73653       -1.06266       -0.37382
H          0.37803        0.62190       -0.00285
H          1.07671       -1.54080        2.10625
H         -0.55104       -0.88548        1.83646
H          0.74377        0.15417        2.47443
