27

N          4.00008       -1.92776        2.20718
C          3.84187       -0.97417        1.09243
C          4.71739        0.25955        1.29453
C          4.56391        1.26821        0.15022
C          5.23507        2.63618        0.36023
C          6.74883        2.74652        0.50962
S          7.60787        1.99610       -0.96960
O          7.38394        0.54514       -1.00357
O          7.23402        2.78145       -2.14574
C          9.35750        2.23893       -0.64599
C          7.23011        4.27982        0.73512
O          6.35292        5.13640        0.50266
O          8.41191        4.39056        1.13875
F          7.19885        1.96503        1.59601
H          3.32911       -2.69238        2.11738
H          3.78079       -1.45656        3.08754
H          2.79060       -0.64831        0.94399
H          4.14727       -1.48880        0.16644
H          5.76614       -0.05120        1.39000
H          4.44273        0.74279        2.25096
H          3.48658        1.46936        0.00403
H          4.92343        0.80871       -0.78204
H          4.83219        3.12045        1.26483
H          4.97272        3.31507       -0.46183
H          9.65000        1.56421        0.16442
H          9.51041        3.28247       -0.34704
H          9.85144        1.97089       -1.58813
