39

O          2.62265        2.03741       -0.64515
C          3.22410        0.78702       -0.35303
S          3.11778       -0.30567       -1.66168
O          3.04021        0.52676       -2.88277
O          4.11027       -1.38206       -1.58622
C          1.50847       -1.16256       -1.61627
C          3.44133        0.45824        1.00311
C          3.92828       -0.80887        1.47474
C          4.11665       -1.05218        2.82305
C          3.84862       -0.08515        3.83419
C          3.37440        1.16605        3.36532
C          3.17449        1.43746        2.02073
Si         4.15051       -0.43830        5.62352
C          6.02769       -0.51566        6.02172
C          6.78765        0.72408        5.53990
C          8.26330        0.71500        5.86319
F          8.92175       -0.35083        5.32506
F          8.89486        1.83645        5.39625
F          8.50708        0.67693        7.21175
C          3.40238        0.90949        6.73346
C          3.45339       -2.12098        6.16021
H          2.78031        2.15064       -1.60233
H          0.71958       -0.40073       -1.61003
H          1.47345       -1.77052       -0.70388
H          1.42715       -1.79729       -2.50884
H          4.17335       -1.58242        0.74748
H          4.49361       -2.04100        3.10869
H          3.14251        1.95894        4.08453
H          2.80128        2.41425        1.71387
H          6.44311       -1.41271        5.53526
H          6.16413       -0.65124        7.10757
H          6.38550        1.64531        5.98935
H          6.69338        0.83583        4.44923
H          3.81653        1.90392        6.51241
H          3.59714        0.69378        7.79477
H          2.31368        0.96998        6.59362
H          3.83559       -2.92574        5.51542
H          2.35712       -2.12744        6.07890
H          3.72336       -2.36411        7.19932
