29

O          3.39280        1.76617       -1.22214
C          3.01976        1.08995       -0.08943
O          2.24171        1.60969        0.68318
C          3.62007       -0.29557        0.08974
C          4.81567       -0.65973       -0.80052
B          5.48319       -2.11566       -0.51667
S          4.30871       -3.59609       -0.98759
O          4.97084       -4.89853       -1.08479
O          3.10550       -3.49115       -0.15107
C          3.43172       -3.40872       -2.74512
C          4.20213       -3.37453       -4.10198
C          5.16268       -4.56380       -4.44826
F          6.24598       -4.57648       -3.66907
F          4.52749       -5.74832       -4.35460
F          5.57419       -4.41610       -5.73675
F          3.26671       -3.33884       -5.11026
F          4.92662       -2.22647       -4.17452
F          2.56677       -4.45964       -2.79590
F          2.68956       -2.25657       -2.72121
C          6.99306       -2.22674       -1.11387
F          7.80823       -1.30005       -0.47085
F          7.62395       -3.42777       -0.94525
F          7.13235       -1.92558       -2.45678
H          4.03540        1.20041       -1.69572
H          2.79777       -1.01532       -0.05192
H          3.88678       -0.38390        1.15302
H          5.62619        0.07170       -0.63485
H          4.54289       -0.58420       -1.87059
H          5.54314       -2.39513        0.66769
