51

C          0.86262        0.83938        0.94973
C          2.25361        0.33381        0.55420
C          2.98020       -0.43868        1.66298
C          4.35816       -0.98363        1.24075
C          5.16149       -1.67303        2.34684
In         7.20900       -2.52051        1.85234
C          8.46943       -0.93710        0.76352
C          9.38443       -1.51705       -0.31903
C         10.44432       -2.48787        0.21107
C          7.64710        0.22976        0.21063
C          8.18784       -2.68412        3.91228
C          9.68555       -2.37753        3.93614
C         10.36095       -2.40394        5.32085
C         11.85587       -2.08533        5.25179
N         12.50678       -2.27834        6.54364
C         13.86632       -2.13481        6.72230
N         14.77162       -1.88630        5.83445
N         14.25672       -2.29281        8.06845
H          0.38164        1.40082        0.13369
H          0.91406        1.50599        1.82483
H          0.19598        0.00426        1.21568
H          2.88021        1.18888        0.24566
H          2.16919       -0.30951       -0.33902
H          2.34541       -1.27579        2.00749
H          3.10897        0.22020        2.54161
H          4.93870       -0.14153        0.82796
H          4.20992       -1.67647        0.39158
H          4.56980       -2.49901        2.78156
H          5.33736       -0.96014        3.17368
H          7.15379       -4.06651        0.94812
H          9.12141       -0.52854        1.55986
H          9.90534       -0.69446       -0.86275
H          8.77765       -2.03319       -1.08614
H         11.08023       -1.99830        0.96574
H         11.10094       -2.85786       -0.59184
H          9.97459       -3.35899        0.69190
H          6.92910       -0.09693       -0.56022
H          8.28522        1.00751       -0.26512
H          7.06150        0.72967        0.99748
H          7.99747       -3.68352        4.34100
H          7.64655       -1.96165        4.55033
H          9.87195       -1.38610        3.48493
H         10.22517       -3.09259        3.28972
H         10.22547       -3.39981        5.77679
H          9.85802       -1.68065        5.98907
H         12.00042       -1.05111        4.88153
H         12.33843       -2.75576        4.52117
H         11.93333       -2.07686        7.35738
H         14.34477       -1.66508        4.93113
H         13.83166       -3.10168        8.51761
H         15.27174       -2.33489        8.12205
