18

O          3.05652       -0.33604       -1.15970
C          2.35488        0.11642       -0.07439
O          1.15191        0.25516       -0.15960
C          3.17501        0.38222        1.17727
C          4.67650        0.60886        0.97318
C          5.45849        0.82225        2.26723
C          7.01810        0.69669        2.01454
O          7.37036       -0.24814        1.25878
O          7.72744        1.53755        2.63341
N          5.07502        2.07665        2.94834
H          4.00295       -0.35827       -0.90993
H          3.02379       -0.49104        1.83673
H          2.70675        1.22743        1.70057
H          4.83901        1.48183        0.31335
H          5.17173       -0.25863        0.49504
H          5.21115       -0.02055        2.94358
H          4.93970        2.78672        2.21942
H          5.96776        2.36412        3.38378
