41

N          3.24893       -0.34590        1.73236
Al         2.23984       -0.37493        0.20908
S          1.40029        1.88491       -0.37335
O          0.98370        1.97341       -1.79337
O          0.47893        2.43971        0.64033
C          2.87468        3.14405       -0.30905
F          3.91575        2.71900       -1.07462
F          2.49556        4.36126       -0.76356
F          3.34466        3.30410        0.95642
C          3.36674       -0.91289       -1.36204
C          4.48954       -1.74043       -1.14402
C          5.29227       -2.20197       -2.18831
C          4.98770       -1.83883       -3.50894
C          3.88461       -1.01028       -3.76123
C          3.09523       -0.55994       -2.70059
C          5.85303       -2.33196       -4.63155
C          5.66717       -3.83420       -5.07754
C          4.27436       -4.32784       -5.62599
C          3.67587       -3.77707       -6.98711
C          4.54080       -3.90983       -8.29622
C          3.71752       -3.74962       -9.63126
F          2.96261       -2.63635       -9.60993
F          4.58731       -3.65657      -10.66035
F          2.92374       -4.81261       -9.85169
F          5.49714       -2.95157       -8.30339
F          5.13344       -5.13200       -8.34823
F          2.52947       -4.49553       -7.18557
F          3.33278       -2.47731       -6.83204
F          4.38217       -5.68196       -5.77311
F          3.32617       -4.08331       -4.68807
F          6.60036       -4.13607       -6.03118
F          5.92143       -4.62227       -3.99333
F          5.70861       -1.57166       -5.76948
F          7.19178       -2.26706       -4.28418
H          2.79150       -0.16783        2.62380
H          4.14297        0.14087        1.74416
H          0.79143       -1.05878        0.35798
H          4.74737       -2.03246       -0.12162
H          6.15913       -2.83149       -1.98198
H          3.65266       -0.70729       -4.78266
H          2.25466        0.10349       -2.92040
