33

C          1.55561       -0.18284        1.20615
C          2.95527        0.25410        0.76322
C          2.98736        0.94976       -0.60327
C          4.39196        1.41495       -1.01657
C          4.48668        2.10777       -2.36028
As         6.36885        2.92011       -2.66514
C          7.03323        1.08057       -3.82195
F          7.10683        1.25859       -5.20036
F          8.30914        0.63720       -3.46983
F          6.24160       -0.06105       -3.67237
C          8.24106        3.74921       -3.00285
C          9.16299        3.53078       -1.82915
N         10.46496        4.24036       -1.98015
H          1.57338       -0.68988        2.18298
H          1.10671       -0.87801        0.47945
H          0.87745        0.68074        1.29247
H          3.62367       -0.62347        0.73463
H          3.38555        0.93151        1.52101
H          2.30431        1.81869       -0.58713
H          2.58561        0.26477       -1.37152
H          5.07313        0.54554       -1.01287
H          4.78302        2.09405       -0.23391
H          3.82719        2.98772       -2.42837
H          4.27683        1.42934       -3.19887
H          6.92550        2.14285       -1.36174
H          5.94799        4.21681       -1.80886
H          5.86457        3.53988       -4.06342
H          8.02852        4.81554       -3.16964
H          8.63478        3.30391       -3.92937
H          9.29054        2.44307       -1.67664
H          8.68506        3.91995       -0.91208
H         10.88793        3.94178       -2.86288
H         11.10740        3.92259       -1.24799
