31

N          0.42743        0.68095        1.85500
C          1.62856        1.37330        2.36233
Ga         3.08515        1.51463        0.96872
S          2.21092        2.94353       -0.90916
O          3.32544        3.55995       -1.66830
O          1.11867        2.33683       -1.69975
C          1.33948        4.51196       -0.16470
F          0.25257        4.18739        0.57813
F          2.18879        5.20488        0.64964
F          0.93254        5.36062       -1.14134
C          4.88091        2.35345        1.33377
C          4.98998        3.40905        2.44034
C          4.67209        2.87033        3.83914
C          4.86445        3.89325        4.96164
C          4.51253        3.34291        6.34615
H         -0.01554        0.11298        2.57876
H          0.67074        0.04927        1.09098
H          2.10961        0.83943        3.20887
H          1.34557        2.36857        2.74457
H          3.13715        0.18335        0.08598
H          5.19626        2.77927        0.36872
H          5.57610        1.52063        1.54404
H          4.31434        4.25312        2.22049
H          6.01047        3.84113        2.46148
H          5.30878        1.98847        4.04084
H          3.63309        2.50118        3.85990
H          4.24491        4.78142        4.75012
H          5.91066        4.24592        4.95831
H          3.45803        3.03081        6.38927
H          4.67446        4.08817        7.13919
H          5.12420        2.45962        6.58766
