36

N          0.69616       -5.64658       -0.57006
C          2.12018       -5.66164       -0.17611
C          2.79044       -4.32230       -0.46951
C          4.27755       -4.28331       -0.08634
C          5.00434       -2.98312       -0.44290
Ga         6.94965       -3.03667        0.13660
C          7.83421       -1.13551       -0.11826
C          7.68417       -0.41681       -1.47126
F          8.18191       -1.17822       -2.48422
F          6.37719       -0.17096       -1.75164
F          8.32966        0.79070       -1.54291
F          7.35332       -0.20961        0.82191
F          9.22458       -1.18168        0.09960
C          8.05275       -4.42873       -0.85614
C          9.37135       -4.78522       -0.16234
C         10.16361       -5.89513       -0.85526
N         11.41937       -6.19920       -0.13254
H          0.29471       -6.58162       -0.47681
H          0.63003       -5.40955       -1.56260
H          2.70101       -6.46465       -0.67444
H          2.16566       -5.86707        0.90656
H          2.24534       -3.52132        0.05747
H          2.69410       -4.10147       -1.54935
H          4.78455       -5.13669       -0.57416
H          4.36751       -4.47155        0.99933
H          4.50895       -2.13019        0.05216
H          4.92917       -2.79882       -1.52871
H          7.06991       -3.25278        1.72561
H          8.24612       -4.09034       -1.88883
H          7.42703       -5.33655       -0.94174
H          9.18436       -5.08710        0.88214
H         10.01193       -3.88599       -0.10147
H         10.32981       -5.60292       -1.91230
H          9.55640       -6.81685       -0.87359
H         11.95185       -5.33275       -0.02232
H         12.00694       -6.82121       -0.69141
