48

C          2.73368       -0.26379        0.40620
C          1.23412       -0.15737        0.27562
C          0.41470       -1.28981        0.34041
C         -0.97622       -1.18972        0.24040
C         -1.59202        0.05672        0.07094
C         -0.77438        1.20044        0.00278
C          0.60938        1.08961        0.10276
C         -3.09535        0.18403        0.01416
C         -3.59621        0.92130       -1.22308
C         -4.72143        1.75596       -1.17264
C         -5.21415        2.36022       -2.32675
C         -4.58278        2.14356       -3.56011
C         -3.45792        1.30868       -3.62460
C         -2.97650        0.70877       -2.46447
C         -5.09453        2.79775       -4.80842
C         -5.88273        1.88623       -5.82793
C         -7.17169        1.10752       -5.35588
C         -8.47285        1.85853       -4.86269
C         -9.23518        2.89579       -5.78354
C         -9.76448        2.43037       -7.19039
F        -10.49794        1.30621       -7.08896
F        -10.55440        3.40924       -7.68599
F         -8.76446        2.22354       -8.06014
F        -10.33743        3.26578       -5.06905
F         -8.46664        3.99322       -5.97387
F         -9.36655        0.87183       -4.56654
F         -8.18913        2.52172       -3.71557
F         -7.55923        0.33127       -6.41544
F         -6.82195        0.28145       -4.34060
F         -6.23060        2.63899       -6.91340
F         -5.03050        0.91294       -6.26399
F         -5.91597        3.86616       -4.53323
F         -4.04894        3.29439       -5.56860
C         -3.62223        0.87648        1.36592
O         -4.24681        0.14663        2.15336
O         -3.31363        2.09589        1.41323
F         -3.64430       -1.12952       -0.11821
H          3.06116       -1.31270        0.39880
H          3.09003        0.18814        1.34597
H          3.25104        0.25576       -0.41525
H          0.87142       -2.27446        0.47540
H         -1.59865       -2.08125        0.30011
H         -1.24756        2.17717       -0.09694
H          1.22153        1.99454        0.05160
H         -5.19158        1.95332       -0.21043
H         -6.07972        3.01777       -2.26624
H         -2.95239        1.14033       -4.57546
H         -2.09506        0.06864       -2.51562
