26

C          0.98543       -0.11862        0.10720
C          2.50704        0.03274       -0.01179
C          2.99317        1.49292        0.00959
C          4.50529        1.69818       -0.13194
Al         5.07968        3.65642       -0.15345
C          7.10017        3.82472       -0.38124
C          7.61554        5.26848       -0.35992
C          9.13178        5.43149       -0.56061
H          0.66549       -1.17236        0.07888
H          0.47178        0.40666       -0.71406
H          0.61538        0.31668        1.04922
H          2.85415       -0.44373       -0.94596
H          2.99994       -0.52138        0.80734
H          2.64373        1.96220        0.94886
H          2.47021        2.04177       -0.79707
H          4.85755        1.21025       -1.06210
H          5.02702        1.17798        0.69556
H          4.32779        4.42480       -1.41799
H          4.63122        4.36889        1.27619
H          7.39390        3.34403       -1.33569
H          7.60670        3.24230        0.41408
H          7.33319        5.74330        0.59721
H          7.09353        5.85588       -1.13720
H          9.69099        4.89291        0.22198
H          9.45142        6.48893       -0.53461
H          9.44631        5.01032       -1.52937
