33

C          1.91268        1.71671        0.16145
S          3.41823        0.74144       -0.12004
C          3.61591       -0.06027        1.52188
C          4.89304       -0.89267        1.57772
B          5.35861       -1.40928        3.06010
S          4.14256       -2.80094        3.72009
O          3.53877       -3.60892        2.62961
O          4.74323       -3.56387        4.84214
C          2.72148       -1.95186        4.50323
C          6.85416       -2.06936        3.05911
C          8.01314       -1.08062        2.80607
C          8.17642       -0.07405        3.95348
C          9.33951       -1.81653        2.55967
H          1.69992        2.27005       -0.76309
H          2.05321        2.43835        0.97972
H          1.05240        1.07180        0.39264
H          2.72595       -0.68433        1.69469
H          3.63616        0.73984        2.27967
H          5.72049       -0.27021        1.18886
H          4.79948       -1.75030        0.88980
H          5.21503       -0.54045        3.92125
H          2.18166       -1.35627        3.75796
H          3.09334       -1.31797        5.31610
H          2.08374       -2.75636        4.89109
H          6.90872       -2.85811        2.28422
H          7.04110       -2.58559        4.01801
H          7.78715       -0.50356        1.88952
H          8.42696       -0.59911        4.89051
H          7.24531        0.48096        4.12753
H          8.98279        0.64863        3.74593
H          9.61999       -2.41045        3.44562
H         10.16642       -1.11714        2.34843
H          9.25441       -2.51173        1.71077
