61

N          1.29131       -0.25794        3.80670
C          2.66504       -0.11021        3.28351
C          3.11030       -1.35597        2.51859
C          4.55231       -1.24746        1.99139
C          5.10106       -2.51358        1.34763
Sb         7.20306       -2.38607        0.42800
C          7.83716       -0.68315        1.91063
C          7.70283       -0.72245        3.30959
C          7.99973        0.37393        4.12230
C          8.47466        1.56234        3.54236
C          8.65233        1.61995        2.15032
C          8.32913        0.50958        1.36318
C          8.69785        2.77565        4.39685
C          9.78953        2.70865        5.53142
C         11.28054        2.35014        5.15217
C         12.03427        3.29360        4.13997
C         13.60567        3.13094        4.18253
C         14.34889        3.71103        2.92213
F         13.95708        4.97531        2.66958
F         15.67699        3.72002        3.17182
F         14.13184        2.95832        1.83298
F         14.09137        3.78774        5.26837
F         13.94454        1.81952        4.27552
F         11.61169        3.01334        2.88102
F         11.75822        4.59380        4.41861
F         11.98192        2.37851        6.32944
F         11.31725        1.08806        4.66575
F          9.81416        3.90429        6.19120
F          9.42269        1.75484        6.43776
F          9.02034        3.88487        3.64477
F          7.53975        3.10490        5.09176
C          7.97826       -3.89477        1.96274
C          7.49880       -5.33904        1.80704
C          8.29633       -6.08133        0.72767
C          7.54663       -6.11106        3.13918
H          1.04518        0.55689        4.37229
H          1.26134       -1.05836        4.44275
H          3.41111        0.10272        4.07561
H          2.67190        0.75978        2.60644
H          2.40647       -1.54969        1.69241
H          3.04189       -2.23012        3.19354
H          5.19437       -0.94832        2.83513
H          4.60790       -0.41115        1.27047
H          4.48843       -2.81779        0.48275
H          5.10785       -3.35122        2.06530
H          6.73428       -3.67782       -0.73966
H          8.83849       -2.22339       -0.30954
H          6.60563       -1.06710       -0.65090
H          7.32825       -1.62648        3.79859
H          7.83874        0.31480        5.20015
H          9.01784        2.53789        1.68787
H          8.44617        0.58554        0.27546
H          7.64737       -3.49210        2.93193
H          9.07892       -3.82904        1.93239
H          6.44078       -5.32331        1.47949
H          9.35903       -6.14524        1.01541
H          8.23428       -5.55237       -0.23304
H          7.92262       -7.10778        0.58228
H          8.57983       -6.16555        3.51992
H          7.17225       -7.14395        3.03063
H          6.93838       -5.61036        3.90794
