66

O          3.19871        1.42993       -1.36056
P          3.18491       -0.02224       -0.33145
C          3.52795        1.07197        1.22954
C          2.48386        1.66696        1.95134
C          2.72539        2.43558        3.09193
C          4.03732        2.63799        3.57600
C          5.08643        2.03242        2.85137
C          4.83092        1.27473        1.70588
Si         4.34138        3.68537        5.09313
C          2.99575        3.30218        6.39599
C          2.92984        1.82115        6.79398
C          1.79439        1.52717        7.75741
C          1.58049        0.02793        8.17763
C          2.72543       -0.76359        8.91798
C          3.26371       -0.30995       10.33701
C          2.23689       -0.18774       11.52428
C          2.90503       -0.13599       12.95161
F          3.87500        0.79642       13.00124
F          1.95603        0.18638       13.85491
F          3.42513       -1.32637       13.29677
F          1.51611        0.94893       11.38300
F          1.39430       -1.25337       11.52288
F          4.18073       -1.25921       10.69035
F          3.91562        0.87135       10.20339
F          2.28405       -2.04369        9.05341
F          3.82326       -0.78435        8.11052
F          0.46998       -0.05451        8.96923
F          1.33877       -0.68391        7.04069
F          1.92229        2.25767        8.92122
F          0.58721        1.89363        7.20487
C          6.04300        3.33327        5.84971
C          4.21642        5.54007        4.72568
C          3.22416       -1.60838        0.79489
C          3.19195       -2.93144        0.02720
C          4.48246       -3.11883       -0.78565
C          4.56311       -4.43863       -1.51197
C          5.84883       -4.62966       -2.37397
F          5.92865       -3.69062       -3.34189
F          6.96276       -4.53664       -1.60668
F          5.86650       -5.84443       -2.97451
F          4.54453       -5.50822       -0.63159
F          3.50246       -4.62507       -2.37234
H          2.27661        1.73323       -1.39666
H          4.64103       -0.09639       -0.57088
H          2.91280       -0.86473       -1.51510
H          1.71687        0.14738       -0.10117
H          1.45527        1.51989        1.59935
H          1.87403        2.88586        3.61611
H          6.12129        2.15384        3.18927
H          5.66395        0.82298        1.15384
H          2.02701        3.61709        5.97784
H          3.17038        3.92885        7.28502
H          3.86775        1.50323        7.27054
H          2.78785        1.18632        5.90616
H          6.16665        2.27059        6.10248
H          6.19266        3.92277        6.76654
H          6.84810        3.59845        5.14962
H          3.23728        5.78459        4.28979
H          4.98420        5.83969        3.99819
H          4.34930        6.14737        5.63380
H          2.35596       -1.55268        1.47122
H          4.12944       -1.56380        1.42514
H          2.33436       -2.93255       -0.66593
H          3.06154       -3.79092        0.70772
H          5.36059       -3.05513       -0.12420
H          4.56942       -2.30782       -1.52445
