17

C          1.07572       -0.04549        0.02935
C          0.54500       -1.28767       -0.65566
C          1.03193       -2.63182       -0.04400
C          2.55514       -2.78388       -0.04272
C         -1.00146       -1.29077       -0.69812
S          2.37561        0.85973       -0.63849
H          1.03052       -0.07665        1.12988
H          0.90507       -1.25395       -1.70216
H          0.57054       -3.49299       -0.57212
H          0.66418       -2.68309        0.99849
H          2.95556       -2.77479       -1.06850
H          2.87575       -3.72230        0.43908
H          3.01724       -1.93863        0.48712
H         -1.41125       -1.24966        0.32568
H         -1.42016       -2.18943       -1.19243
H         -1.35642       -0.39347       -1.22293
H          3.65452        0.18087       -0.50795
