22

Br         1.93280       -1.28179       -2.58706
Ta         3.56084       -0.44310       -0.80169
C          2.71122        0.61872        0.97549
F          1.30501        0.61466        0.79794
F          2.88449        0.31443        2.29126
F          3.02998        1.99793        0.89631
C          5.14087        0.72618       -1.66283
C          6.66083        0.73621       -1.53430
C          7.26334       -0.46592       -2.27298
C          7.30003        2.04846       -2.02315
H          4.84858       -0.47173        0.41780
H          4.61417       -1.82366       -0.97029
H          3.36219       -1.67573        0.42882
H          4.70877        1.63081       -1.14564
H          4.84150        0.83732       -2.73236
H          6.88631        0.62048       -0.46064
H          7.04089       -0.40946       -3.35248
H          6.82771       -1.39811       -1.88972
H          8.35872       -0.50294       -2.15744
H          7.09476        2.20610       -3.09550
H          8.39508        2.04208       -1.88969
H          6.89683        2.91501       -1.47721
