31

S          4.02434       -0.28447       -1.55457
C          3.03431       -0.89207       -0.11903
C          3.30360       -0.01378        1.10889
C          4.75584        0.05235        1.54652
Sb         5.07717        1.11866        3.55520
C          4.41153       -0.82948        4.56925
C          4.48183       -0.82973        6.09436
C          3.36719        0.03579        6.69616
C          4.43393       -2.25030        6.68716
N          7.13542        0.34520        3.64010
H          3.25721       -0.86694       -2.50896
H          3.32624       -1.93326        0.08286
H          1.97216       -0.87028       -0.40891
H          2.68231       -0.41737        1.92997
H          2.92036        1.00152        0.91301
H          5.38403        0.59942        0.82602
H          5.17799       -0.95733        1.67987
H          5.33576        1.88127        5.15119
H          5.73962        2.56369        2.70762
H          3.38765        1.76340        3.47431
H          5.07209       -1.60441        4.14664
H          3.38346       -1.03693        4.22379
H          5.44874       -0.37798        6.38876
H          2.37836       -0.37747        6.43395
H          3.42043        1.06155        6.30684
H          3.43632        0.07927        7.79533
H          3.48016       -2.74394        6.43531
H          4.52497       -2.23918        7.78801
H          5.24609       -2.87567        6.28634
H          7.61318        0.76663        2.83439
H          7.08902       -0.65394        3.40507
