50

O          2.36488       -1.47113       -1.37198
Ta         2.95819       -0.07922       -0.15302
C          4.16956       -0.13671        1.72278
C          5.01698        0.94307        2.07907
C          5.77356        0.96542        3.24812
C          5.71458       -0.11014        4.15342
C          4.88698       -1.20258        3.83920
C          4.14633       -1.20297        2.65745
C          6.56216       -0.11904        5.38289
C          6.42227        1.07723        6.40171
C          5.01735        1.40189        7.03918
C          4.32413        0.39854        8.05029
C          5.10819       -0.01593        9.35403
C          4.18897       -0.57269       10.50737
F          3.36559       -1.53662       10.05654
F          4.98034       -1.10264       11.46666
F          3.45400        0.40300       11.06985
F          5.99909       -0.99015        9.05327
F          5.77212        1.05046        9.87381
F          3.18210        1.03595        8.45465
F          3.96472       -0.72728        7.39336
F          5.16449        2.58296        7.71386
F          4.11586        1.59966        6.04737
F          7.29217        0.88115        7.44261
F          6.80119        2.22886        5.77571
F          6.38147       -1.26226        6.13223
F          7.92164       -0.08983        5.06053
C          1.34429       -0.26212        1.36678
C          1.10715        0.53126        2.65250
C          0.99419        2.04153        2.41908
C          0.81135        2.87135        3.69116
N         -0.48742        2.59884        4.34046
H          3.00453       -2.11301       -1.70716
H          4.56261       -0.85145       -0.41564
H          4.21385        1.11778       -0.60902
H          2.25185        1.43694       -0.82667
H          5.10335        1.78758        1.39140
H          6.42605        1.81616        3.44772
H          4.82411       -2.05070        4.52306
H          3.51410       -2.07690        2.46625
H          1.36242       -1.34701        1.60641
H          0.47806       -0.13140        0.67654
H          1.94801        0.35028        3.34390
H          0.20145        0.18891        3.18405
H          0.15624        2.24934        1.72690
H          1.89822        2.39580        1.89790
H          0.95117        3.94310        3.44246
H          1.60205        2.60636        4.41268
H         -1.24455        2.86261        3.70600
H         -0.59451        3.18097        5.17261
