31

C          1.02537        0.27684       -0.26283
C          2.52684        0.06603       -0.05192
C          2.89450       -0.17210        1.41682
C          4.41217       -0.33414        1.57877
C          5.03768       -0.65636        2.95693
S          4.36354        0.60230        4.15909
O          4.42693        1.90203        3.50621
O          3.08875        0.12618        4.67906
C          5.46834        0.82721        5.75655
F          6.19195       -0.22397        6.12813
F          6.23898        1.91339        5.64817
F          4.55893        1.07722        6.74075
S          4.57801       -2.36450        3.56366
O          4.92056       -2.45846        4.97730
O          3.22578       -2.72196        3.13667
C          5.67640       -3.48131        2.67729
C          6.65142       -0.48927        2.80556
O          7.13787       -1.17631        1.88436
O          7.15236        0.33339        3.59260
H          0.78133        0.44059       -1.32320
H          0.66687        1.14989        0.30302
H          0.45170       -0.59589        0.08378
H          3.07851        0.94342       -0.43184
H          2.86691       -0.79179       -0.65810
H          2.37379       -1.06161        1.79532
H          2.54280        0.68141        2.01597
H          4.91082        0.58613        1.23611
H          4.78836       -1.13003        0.91602
H          6.71279       -3.29628        2.96613
H          5.55587       -3.34858        1.59875
H          5.31790       -4.46814        3.00001
