63

C          9.16681        5.63063        1.12216
C          8.54579        4.24904        0.90368
C          9.05355        3.19566        1.89302
C          8.44965        1.80466        1.68013
C          8.98320        0.74849        2.65294
C          8.40997       -0.65221        2.41872
C          9.00441       -1.72275        3.34263
C          8.47012       -3.13704        3.06932
Si         9.27270       -4.54332        4.06744
C          8.89540       -4.39763        5.90601
C          7.62830       -3.98367        6.36405
C          7.31395       -3.95172        7.72722
C          8.25134       -4.34262        8.70331
C          9.51751       -4.75095        8.24569
C          9.83651       -4.77476        6.88328
In         7.81894       -4.26260       10.86448
S          5.11060       -4.07911       10.96551
O          4.68644       -3.48116       12.25258
O          4.51890       -3.50653        9.73241
C          4.28449       -5.82904       11.03551
F          4.59880       -6.55620        9.93166
F          4.71195       -6.52880       12.11774
F          2.93668       -5.73756       11.10398
C          8.06277       -2.20426       11.71126
C          8.47497       -1.16154       10.67110
C          8.67374        0.27416       11.16096
O          9.21225        1.15225       10.51867
O          8.18350        0.53920       12.40656
C          8.58096       -6.18080        3.40772
C         11.14619       -4.51933        3.77912
H          8.78631        6.36640        0.39918
H         10.26166        5.59454        1.01641
H          8.94670        6.00967        2.13128
H          8.75358        3.90920       -0.12547
H          7.44773        4.32104        0.98226
H          8.84270        3.53238        2.92312
H         10.15367        3.12954        1.81739
H          8.64910        1.47721        0.64388
H          7.35081        1.86554        1.77153
H          8.77066        1.06309        3.68917
H         10.08398        0.70632        2.57051
H          8.58768       -0.94663        1.36836
H          7.31321       -0.62874        2.54491
H          8.80912       -1.44968        4.39299
H         10.10251       -1.71082        3.22915
H          8.60834       -3.38503        2.00078
H          7.37926       -3.16386        3.23733
H          6.86083       -3.67866        5.64485
H          6.31419       -3.62905        8.03147
H         10.28481       -5.06668        8.96066
H         10.83792       -5.09774        6.58224
H          8.24338       -5.63087       11.87120
H          8.79733       -2.27841       12.52822
H          7.07201       -1.99464       12.15025
H          7.72576       -1.09542        9.86396
H          9.41007       -1.43312       10.15821
H          7.81992       -0.31110       12.74018
H          7.49181       -6.22792        3.55038
H          9.02027       -7.03338        3.94509
H          8.79048       -6.30678        2.33481
H         11.60623       -3.60666        4.18321
H         11.37320       -4.56699        2.70363
H         11.63563       -5.37904        4.25876
