30

C          0.80374        0.07839       -0.00854
S          2.59327        0.06861        0.28659
C          3.13751        1.06144       -1.14977
C          4.64775        1.28688       -1.06460
C          5.21080        2.13447       -2.22469
C          4.85461        1.61193       -3.61883
C          4.10428        2.45869       -4.45533
C          3.71608        2.08298       -5.73888
C          4.05470        0.82035       -6.22853
C          4.77424       -0.04570       -5.41450
C          5.19328        0.32193       -4.12125
C          5.96411       -0.79309       -3.43698
O          5.71370       -1.96504       -3.66957
O          6.98782       -0.47795       -2.62448
C          4.88223        3.67767       -2.02727
O          5.84136        4.46644       -2.05194
O          3.64424        3.88897       -1.87822
F          6.67621        2.00023       -2.10990
H          0.34127       -0.50107        0.80129
H          0.55534       -0.39546       -0.96901
H          0.40344        1.10178        0.00978
H          2.62922        2.03425       -1.15388
H          2.87912        0.51409       -2.06910
H          5.16257        0.31369       -1.04217
H          4.89360        1.80778       -0.12721
H          3.80103        3.42605       -4.05612
H          3.14478        2.78200       -6.35261
H          3.75743        0.50848       -7.23145
H          5.03163       -1.04876       -5.75431
H          7.01264        0.50746       -2.47352
