45

C          2.02361        1.80205       -0.21513
C          3.14304        0.77106       -0.38817
C          3.47451        0.01161        0.90130
C          4.60679       -1.01274        0.74215
B          5.12858       -1.75800        2.08538
S          3.74427       -2.84897        2.95859
O          4.28560       -3.71357        4.01753
O          2.56888       -2.02991        3.28626
C          2.86010       -4.13255        1.74093
C          3.70363       -5.29440        1.15060
C          2.97212       -6.25504        0.14384
F          1.89156       -6.83362        0.70785
F          2.57572       -5.60630       -0.96921
F          3.82137       -7.24165       -0.23285
F          4.76446       -4.77033        0.47015
F          4.16924       -6.07889        2.15830
F          1.83981       -4.67360        2.46516
F          2.31323       -3.42918        0.70074
C          6.50936       -2.58895        1.96189
C          7.17436       -3.08313        3.10514
C          8.40844       -3.72945        3.01568
C          9.03839       -3.90650        1.77710
C          8.40116       -3.42246        0.63639
C          7.15695       -2.77871        0.73006
C          9.02929       -3.62664       -0.71379
F         10.37052       -3.87731       -0.64301
F          8.48201       -4.68548       -1.38937
F          8.87946       -2.54288       -1.53006
C          9.12019       -4.22120        4.24587
F          8.37492       -4.13345        5.37341
F          9.51092       -5.52967        4.12944
F         10.27549       -3.51466        4.48665
H          1.80353        2.33359       -1.15356
H          2.29410        2.55568        0.54073
H          1.09378        1.32046        0.12384
H          4.05332        1.27425       -0.75993
H          2.85840        0.04702       -1.17135
H          2.56680       -0.48702        1.27519
H          3.75312        0.73681        1.68625
H          5.48934       -0.47720        0.33958
H          4.33013       -1.73288       -0.05036
H          5.20126       -0.99519        3.04514
H          6.70137       -2.96518        4.07968
H         10.00522       -4.40358        1.70881
H          6.68917       -2.40980       -0.18422
