32

O          3.85795       -3.49627       -0.60022
C          4.55934       -2.39278       -0.30269
O          5.57679       -2.11499       -0.91799
C          4.03414       -1.52486        0.81652
C          4.82872       -0.43217        1.18998
C          4.42663        0.43483        2.21085
C          3.21553        0.22747        2.87401
C          2.42618       -0.86437        2.49141
C          2.80609       -1.74966        1.47356
Nb         0.91849       -2.76960        1.56838
S          0.42741       -5.03149        2.43668
O          1.51114       -5.36247        3.38831
O         -0.97044       -5.21602        2.86654
C          0.59514       -6.46246        1.15777
F          1.82916       -6.52860        0.60776
F          0.36662       -7.63623        1.79648
F         -0.30402       -6.35699        0.15443
C         -0.55223       -1.56945        0.32564
C         -0.62355       -0.03683        0.54643
F         -0.71231        0.24084        1.88096
F          0.49118        0.57418        0.07539
F         -1.69014        0.55323       -0.05189
F         -0.49887       -1.71919       -1.05003
F         -1.79929       -2.03867        0.75187
H          3.07715       -3.59514        0.02412
H          5.76765       -0.27847        0.65570
H          5.06312        1.27708        2.48805
H          2.89332        0.89781        3.67272
H          1.47895       -1.02755        3.05179
H          0.37260       -2.89525        3.25174
H          0.14690       -3.70910        0.32348
H          1.91274       -3.99513        0.83215
