20

O          1.41808       -0.06734        0.32766
C          2.64909        0.12529        0.14602
O          3.47210        0.74753        0.87866
C          3.24572       -0.47206       -1.19209
C          2.81281        0.37638       -2.40426
C          1.32717        0.29400       -2.76448
C          0.97439        1.13010       -3.99019
N         -0.46515        1.03358       -4.31082
N          4.71500       -0.56687       -1.09008
H          2.81032       -1.48208       -1.31103
H          3.41157        0.05440       -3.28095
H          3.09056        1.42832       -2.20677
H          0.72540        0.59499       -1.89444
H          1.06544       -0.76299       -2.96209
H          1.62589        0.82421       -4.83683
H          1.20076        2.19135       -3.78879
H         -0.73297        0.04742       -4.34559
H         -0.64880        1.41262       -5.24131
H          4.91954        0.01248       -0.25716
H          5.14909       -0.08973       -1.88455
