18

N          1.08210       -0.05190        0.10836
C          2.46706        0.46990       -0.02525
N          2.96391        0.39874       -1.34337
C          4.30141        0.79711       -1.40498
C          4.89956        0.53390       -2.80475
C          6.34837        0.93091       -2.98728
O          7.19383        0.23498       -3.56262
N          6.67834        2.18113       -2.49450
H          1.12165       -0.98655       -0.31652
H          0.53908        0.47986       -0.58209
H          3.09423       -0.10157        0.72336
H          2.43501        1.52170        0.39746
H          4.97783        0.29270       -0.64181
H          4.46585        1.91709       -1.16650
H          4.27225        1.07339       -3.53669
H          4.81509       -0.53507       -3.03884
H          6.04785        2.56930       -1.78783
H          7.67359        2.35458       -2.38665
