14

C          1.02547        0.19988        0.00071
P          2.90703        0.32030       -0.28715
C          3.40716       -0.47376        1.53623
F          2.44859       -0.39597        2.54246
F          3.81949       -1.80165        1.56378
F          4.49368        0.21592        2.05957
O          2.82077       -1.28379       -1.03494
H          0.64590        1.21215        0.20548
H          0.75405       -0.46213        0.83377
H          0.56562       -0.18555       -0.91908
H          3.01880        1.60275        0.42068
H          2.68427        1.01635       -1.56601
H          4.37293        0.32981       -0.49845
H          3.73331       -1.61133       -1.05173
