33

N          2.87970        2.14894        0.52346
C          2.22438        0.94658        0.47604
O          1.05075        0.87005        0.10560
C          3.03033       -0.26264        0.94274
C          4.53344       -0.11136        1.14064
P          5.37434       -1.79889        1.59087
C          6.06019       -3.71462        1.95110
C          6.49801       -4.07800        3.38182
F          7.55590       -3.31693        3.77380
F          5.49220       -3.87890        4.26762
F          6.89213       -5.38504        3.52642
F          5.04540       -4.60780        1.63444
F          7.13368       -4.08827        1.13323
C          7.16774       -1.09408        1.20947
C          7.67467       -0.08215        2.23205
C          9.07743        0.48864        2.05328
O          9.43736        1.55620        2.55709
N          9.94243       -0.27875        1.32030
H          2.40285        2.97324        0.18005
H          3.86879        2.18310        0.74023
H          2.81940       -1.06737        0.21882
H          2.55391       -0.59830        1.88000
H          4.75753        0.60104        1.95355
H          5.01205        0.24861        0.21427
H          5.55148       -1.43769        3.02391
H          4.06894       -2.40386        1.90019
H          5.27390       -2.25802        0.17427
H          7.10308       -0.65189        0.20175
H          7.83417       -1.96706        1.14861
H          7.65464       -0.53495        3.23986
H          7.01174        0.79290        2.30091
H          9.60535       -1.09441        0.82250
H         10.87726        0.07219        1.15564
