41

N          5.14890        0.28104       -1.74842
C          3.93485        0.14741       -0.91717
C          3.84421       -1.24096       -0.26821
C          4.91726       -1.59810        0.75436
Ta         5.01073       -3.55046        1.85161
C          3.84734       -4.59789        3.44861
C          3.02532       -5.73117        3.25782
C          2.28397       -6.31261        4.29134
C          2.34167       -5.81338        5.60158
C          3.17654       -4.70973        5.82954
C          3.89214       -4.12060        4.78134
C          1.52660       -6.42432        6.71650
C          6.88241       -2.91727        2.77951
C          7.28311       -1.54254        3.32706
C          6.44753       -1.12251        4.53627
S          6.90589        0.50816        5.24754
H          5.08877        1.11448       -2.33524
H          5.20239       -0.51820       -2.38445
H          3.00211        0.33305       -1.49311
H          3.98419        0.91755       -0.12763
H          3.84533       -1.99861       -1.07559
H          2.85366       -1.32495        0.21044
H          4.86390       -0.85615        1.58601
H          5.91880       -1.48283        0.29063
H          5.31160       -5.29487        1.48246
H          5.12445       -3.89492        0.10593
H          3.39481       -2.82369        2.06027
H          2.96456       -6.17915        2.26112
H          1.65341       -7.18444        4.08260
H          3.25905       -4.29763        6.84199
H          4.50418       -3.24495        5.02776
H          1.05422       -7.36337        6.39352
H          0.72118       -5.74834        7.04972
H          2.14374       -6.64520        7.60201
H          7.53001       -3.16516        1.90832
H          7.08032       -3.71673        3.52517
H          7.16801       -0.78112        2.53987
H          8.34918       -1.51888        3.62639
H          6.49111       -1.87443        5.33651
H          5.38999       -1.00009        4.25901
H          8.18376        0.18817        5.56011
