20

Br         1.87024       -0.86305        1.36868
Al         3.26525        0.41942       -0.09623
C          4.20956       -0.85908       -1.32231
C          3.28233       -1.64437       -2.25761
C          4.06453       -2.60855       -3.17192
C          3.30528       -3.31046       -4.27869
C          2.17168       -4.29746       -3.85567
F          1.13301       -3.65230       -3.29085
F          1.69855       -4.97847       -4.92842
F          2.64205       -5.20661       -2.96719
F          2.72595       -2.41015       -5.14666
F          4.18542       -4.06964       -5.03816
Br         4.92589        1.56337        1.18867
H          2.34149        1.50816       -0.85233
H          4.80542       -1.55595       -0.70676
H          4.93781       -0.27667       -1.91675
H          2.69865       -0.95127       -2.88545
H          2.54902       -2.21038       -1.66250
H          4.56156       -3.38404       -2.56961
H          4.86220       -2.05390       -3.69255
