46

Cl         1.45550        0.61022       -1.16766
Ta         3.60296        0.26668       -0.22014
C          4.70588       -1.29441        0.91121
C          5.85649       -0.92621        1.65431
C          6.60644       -1.83329        2.39535
C          6.22536       -3.18778        2.44475
C          5.07866       -3.58977        1.74075
C          4.35303       -2.66181        0.99248
C          7.07401       -4.17295        3.17714
C          6.99124       -4.20308        4.75250
C          5.64651       -4.60991        5.46654
C          5.05119       -6.07679        5.35036
C          5.96791       -7.29704        5.74077
C          5.18062       -8.63684        6.01069
F          4.32784       -8.91716        5.00828
F          6.07509       -9.64503        6.10382
F          4.49398       -8.58280        7.16618
F          6.83908       -7.54878        4.73628
F          6.66163       -7.02168        6.87744
F          3.97979       -6.09227        6.20287
F          4.58619       -6.27562        4.09559
F          5.84124       -4.38416        6.80107
F          4.65525       -3.78426        5.04440
F          7.95829       -5.04223        5.24270
F          7.27320       -2.94918        5.21035
F          6.84020       -5.46972        2.76556
F          8.42306       -3.92739        2.94828
C          3.12078        0.91486        1.82246
C          2.11416        0.35993        2.83917
C          2.64160       -0.80968        3.67163
N          1.64935       -1.21037        4.69047
H          5.17117       -0.08383       -0.96986
H          4.41868        1.75755       -0.79079
H          3.47775       -1.23718       -1.15147
H          6.20573        0.11208        1.62898
H          7.50461       -1.50141        2.91925
H          4.77048       -4.63669        1.75624
H          3.49031       -3.01910        0.42392
H          2.73648        1.89140        1.43641
H          4.07889        1.15253        2.32495
H          1.18418        0.04600        2.33792
H          1.81284        1.15960        3.54812
H          3.62285       -0.52889        4.10370
H          2.82712       -1.67711        3.02412
H          1.52028       -0.44750        5.35978
H          2.00893       -2.00020        5.22983
