8

N          1.06115        0.17724       -0.14602
N          1.77247       -0.51642        0.91985
S          2.75699        0.41428        1.71854
O          2.36801        1.82565        1.84842
O          3.29698       -0.26449        2.88647
F          4.17102        0.60196        0.73448
H          1.70903        0.27387       -0.93943
H          0.88044        1.14352        0.16318
