26

C          3.42702       -1.87567       -1.21012
Al         2.99854       -0.10640       -0.34316
C          4.04939       -0.00408        1.43107
C          5.25337        0.72367        1.54804
C          5.98361        0.78221        2.74298
C          5.53506        0.10739        3.88608
C          4.34380       -0.61333        3.80280
C          3.61998       -0.65910        2.59805
C          3.81821       -1.35288        4.99859
F          4.60544       -1.22195        6.10862
F          2.56761       -0.93180        5.36698
F          3.70185       -2.69917        4.77147
C          7.25752        1.56906        2.85206
F          7.63300        2.16037        1.68860
F          7.17485        2.57489        3.78656
F          8.31975        0.79309        3.25244
N          1.15760       -0.00538       -0.06352
H          4.51103       -2.01939       -1.35530
H          2.95266       -1.95893       -2.20259
H          3.07149       -2.73236       -0.61066
H          3.53776        1.20144       -1.18326
H          5.62672        1.26963        0.67715
H          6.09906        0.14750        4.81725
H          2.68105       -1.22277        2.57810
H          0.75370        0.79283        0.42358
H          0.64548       -0.83355        0.23622
