40

O          3.91350        0.94677        0.99011
Al         2.72320       -0.16285        0.29222
C          1.28961        0.89514       -0.82354
C          1.70200        1.87743       -1.93590
F          2.45431        2.89022       -1.43399
F          2.43981        1.24887       -2.88780
F          0.64422        2.46052       -2.58383
F          0.40280       -0.00081       -1.45260
F          0.47799        1.66510        0.03511
C          3.74512       -1.40454       -0.92209
C          5.15341       -1.35542       -0.98665
C          5.89704       -2.23637       -1.77964
C          5.26507       -3.22178       -2.56371
C          3.85586       -3.27780       -2.51401
C          3.12555       -2.39580       -1.71336
Si         6.23158       -4.43479       -3.60778
C          6.04487       -6.18731       -2.86351
C          6.80216       -7.28293       -3.62090
C          6.65485       -8.66789       -3.02843
F          5.36195       -9.09963       -3.01456
F          7.36531       -9.59739       -3.74357
F          7.10778       -8.74229       -1.74501
C          5.57487       -4.48482       -5.38534
C          8.07483       -3.99828       -3.64401
H          3.59631        1.56907        1.65495
H          1.78561       -0.95233        1.36472
H          5.68225       -0.60205       -0.39435
H          6.98850       -2.15112       -1.78822
H          3.31623       -4.02210       -3.11143
H          2.03396       -2.48291       -1.70915
H          4.97022       -6.42594       -2.82596
H          6.38631       -6.14401       -1.81757
H          7.88310       -7.07791       -3.64883
H          6.46183       -7.36064       -4.66467
H          4.50305       -4.72972       -5.40207
H          6.10168       -5.22523       -6.00575
H          5.69283       -3.50145       -5.86233
H          8.51760       -4.03647       -2.63845
H          8.22620       -2.98243       -4.03563
H          8.63900       -4.68924       -4.28772
