30

C          1.70969       -3.84688       -1.28424
C          2.73075       -3.31846       -0.26345
C          3.58009       -2.13357       -0.74303
Al         4.98819       -1.50193        0.59100
C          5.85172        0.23271       -0.07009
C          4.93132        1.45637       -0.07190
C          5.65005        2.75004       -0.51593
C          4.78034        3.98757       -0.54591
C          5.49674        5.28621       -1.02714
F          6.54491        5.58822       -0.22262
F          5.97216        5.13906       -2.28813
F          4.66098        6.35165       -1.02776
F          3.69658        3.83057       -1.38723
F          4.27232        4.28494        0.70294
O          6.24737       -2.76842        0.80559
H          1.11860       -4.69404       -0.89313
H          2.21675       -4.18665       -2.20204
H          1.00515       -3.05269       -1.57980
H          3.39365       -4.15027        0.03517
H          2.19501       -3.03232        0.65921
H          2.90855       -1.29314       -1.01100
H          4.08552       -2.41269       -1.69091
H          4.31114       -1.20842        2.06613
H          6.26710        0.08461       -1.08654
H          6.72335        0.43058        0.58317
H          4.51046        1.61261        0.93494
H          4.07128        1.28751       -0.74026
H          6.06842        2.61365       -1.52541
H          6.49647        2.95573        0.15770
H          6.54381       -3.18442       -0.01326
