42

C          0.98720        0.72087        1.08283
C          2.49482        0.54642        0.88193
C          3.04088       -0.76371        1.45814
C          4.54525       -0.95634        1.24572
C          5.09967       -2.25701        1.83468
C          6.58968       -2.48342        1.53140
C          7.21881       -3.66830        2.22564
C          6.57854       -5.01308        1.96496
C          6.77501       -5.52795        0.51770
S          5.97619       -7.13686        0.05415
C          4.22598       -6.66245        0.16519
C          8.72499       -3.66274        2.20546
C          9.24648       -2.58843        3.16419
S          8.06292       -2.61482        4.56919
C          9.19836       -1.66311        5.73666
H          0.62382        1.67152        0.66450
H          0.72603        0.70530        2.15216
H          0.42651       -0.09316        0.59804
H          3.02885        1.39426        1.34427
H          2.73066        0.59347       -0.19523
H          2.49786       -1.61282        1.00435
H          2.81521       -0.80646        2.53895
H          5.08674       -0.10068        1.68846
H          4.76410       -0.92491        0.16244
H          4.50369       -3.10297        1.44723
H          4.96770       -2.26044        2.93015
H          7.12645       -1.56779        1.84112
H          6.69352       -2.49282        0.40407
H          5.49581       -4.97501        2.17936
H          6.99203       -5.77735        2.64855
H          7.84283       -5.71751        0.32841
H          6.44203       -4.78127       -0.22059
H          3.63388       -7.52843       -0.15883
H          4.00678       -5.81487       -0.50070
H          3.93849       -6.39884        1.19114
H          9.21783       -3.49918        1.20213
H          9.08842       -4.64323        2.56327
H          9.24239       -1.58572        2.70217
H         10.27241       -2.78216        3.52322
H          8.65115       -1.55470        6.68335
H          9.43589       -0.65670        5.35430
H         10.14166       -2.20017        5.93399
