27

N          1.74047       -1.29405       -0.93548
C          2.87114       -0.52817       -0.36582
C          3.32655        0.57775       -1.31636
C          4.50352        1.38574       -0.78181
P          5.26593        2.68730       -1.99978
C          4.06393        4.22637       -1.44689
C          2.96482        4.66170       -2.44255
F          3.47799        4.91672       -3.66978
F          2.01604        3.70123       -2.57859
F          2.30925        5.80039       -2.04835
F          3.39701        4.06739       -0.23026
F          4.86711        5.34793       -1.27541
C          6.61256        1.37855       -2.67818
F          6.10871        0.12157       -2.97558
F          7.21346        1.79398       -3.84749
F          7.65834        1.13929       -1.80557
H          1.53627       -2.10693       -0.35090
H          2.02214       -1.66577       -1.84561
H          3.74591       -1.16414       -0.12044
H          2.52776       -0.08181        0.58244
H          2.47079        1.23851       -1.52882
H          3.60651        0.12001       -2.28215
H          5.34065        0.72301       -0.50538
H          4.22249        1.93976        0.12571
H          4.34727        2.26003       -3.08310
H          5.86456        3.67841       -2.90365
H          6.17838        3.11479       -0.91222
