34

Br         2.36077        2.47884        0.69967
Nb         3.81369        0.66645       -0.28491
S          4.59979       -0.67427       -2.16315
O          4.53606       -0.58293       -3.62906
O          5.82223       -0.11016       -1.45747
C          5.01847       -2.58220       -1.95970
C          3.82892       -3.53623       -2.27772
C          4.05016       -5.05134       -1.92400
F          5.17017       -5.53097       -2.50530
F          4.13964       -5.24798       -0.59569
F          3.00117       -5.77861       -2.38018
F          2.72796       -3.13163       -1.58753
F          3.55173       -3.48549       -3.60932
F          6.03295       -2.84825       -2.83012
F          5.47000       -2.84661       -0.70583
C          5.30351        0.66351        1.34080
C          6.15031        1.93930        1.35018
C          7.23477        1.88735        2.44681
C          8.16850        3.07939        2.45490
C          9.24585        3.05195        3.58286
F          8.66150        3.05676        4.80563
F         10.01035        1.93774        3.49215
F         10.06683        4.12339        3.51340
F          8.86400        3.18236        1.27044
F          7.48149        4.26314        2.61922
H          2.33146       -0.27101       -0.20836
H          3.97644       -1.02239        0.12210
H          4.00333        1.47272       -1.86006
H          5.94400       -0.22172        1.22068
H          4.73091        0.55004        2.27981
H          5.52108        2.82846        1.50969
H          6.64650        2.06630        0.37406
H          7.85158        0.98496        2.31974
H          6.76385        1.82287        3.43954
