48

C          7.77891        0.59497        4.86527
O          7.38815        0.49073        3.51178
C          8.13386       -0.50670        2.81786
C          7.65378       -0.56890        1.37397
O          8.42464       -1.54952        0.72127
C          8.08291       -1.69417       -0.66751
C          8.96760       -2.75578       -1.31223
N          8.62830       -2.83933       -2.70652
C          9.29417       -3.72736       -3.44095
C         10.33842       -4.62409       -2.98450
C         10.96097       -5.52345       -3.83872
C         10.63796       -5.63652       -5.21645
C          9.61701       -4.74825       -5.67669
C          8.98316       -3.84696       -4.84827
Si        11.37933       -6.92331       -6.30661
C         10.55188       -8.64351       -6.04739
C          9.02352       -8.55466       -6.01116
C          8.32437       -9.87727       -5.80972
F          8.68403      -10.50258       -4.65116
F          6.96263       -9.73611       -5.76383
F          8.57662      -10.76947       -6.82068
C         11.15563       -6.49828       -8.14665
C         13.22809       -7.21955       -5.98398
H          7.16401        1.37993        5.32539
H          8.84726        0.87094        4.96292
H          7.61793       -0.35489        5.41209
H          7.99929       -1.49509        3.29921
H          9.21502       -0.26761        2.84010
H          7.77411        0.42598        0.89666
H          6.57221       -0.81678        1.34703
H          8.21945       -0.72891       -1.19220
H          7.01785       -1.98055       -0.76604
H          8.81817       -3.71310       -0.75838
H         10.03110       -2.47149       -1.12702
H         10.64936       -4.59112       -1.93820
H         11.74100       -6.17030       -3.41678
H          9.32197       -4.77215       -6.73201
H          8.21181       -3.17871       -5.24023
H         10.91633       -9.05383       -5.09174
H         10.88046       -9.33812       -6.83862
H          8.61976       -8.13682       -6.94675
H          8.69720       -7.88351       -5.20218
H         10.09490       -6.40175       -8.42076
H         11.59618       -7.27853       -8.78572
H         11.64307       -5.54239       -8.38702
H         13.41376       -7.42410       -4.91947
H         13.81840       -6.33342       -6.25734
H         13.60608       -8.07682       -6.56197
