25

C          1.01743       -0.30968       -0.18310
C          2.50927       -0.04511        0.03841
C          3.15900        0.86651       -1.00798
Ga         2.36113        2.77570       -1.04763
C          0.93070        3.19153       -2.45047
C         -0.48194        2.69033       -2.12548
N          3.84938        4.00490       -1.45032
C          4.67124        0.94058       -0.77179
H          0.61277       -1.01727        0.55937
H          0.83543       -0.73445       -1.18385
H          0.44312        0.62471       -0.10885
H          3.04160       -1.02236        0.08672
H          2.63726        0.41252        1.03763
H          2.98617        0.41698       -2.00606
H          1.71855        3.05330        0.44304
H          1.25199        2.80906       -3.43495
H          0.91836        4.29246       -2.54706
H         -0.52759        1.58904       -2.12855
H         -1.25844        3.04188       -2.83359
H         -0.79566        3.01076       -1.11759
H          4.46478        4.07830       -0.63405
H          3.45899        4.94760       -1.54933
H          4.89121        1.36521        0.22429
H          5.16560        1.58988       -1.50899
H          5.16014       -0.05693       -0.80144
