22

O          1.26596       -0.18019       -0.19210
In         2.81836       -0.10417        1.17162
S          4.11497        1.94524       -0.15453
O          3.15743        2.60728       -1.07264
O          5.00170        2.82314        0.64250
C          5.38564        1.16373       -1.41449
F          4.79116        0.20646       -2.19480
F          5.90874        2.09273       -2.24406
F          6.41910        0.55344       -0.77164
C          4.04163       -1.90181        0.78488
C          3.43381       -2.77363       -0.33673
C          4.47577       -3.70602       -0.93565
O          4.65059       -4.87262       -0.57903
N          5.24326       -3.13590       -1.92545
H          1.20364        0.68739       -0.62266
H          2.46673        0.68588        2.69105
H          4.18454       -2.49132        1.70097
H          5.03478       -1.52878        0.49341
H          2.99697       -2.14097       -1.12481
H          2.62282       -3.39726        0.06136
H          5.20648       -2.13573       -2.09192
H          6.07630       -3.63599       -2.21413
