31

C          1.45714       -0.69299       -1.17227
C          2.84337       -0.39940       -0.58769
C          3.40864        0.96588       -1.01129
C          4.77555        1.30889       -0.45592
As         5.51209        3.09111       -1.29049
C          4.77496        4.30096        0.37990
C          4.43034        5.66798       -0.17060
C          3.67793        6.65132        0.71897
O          3.39063        7.79544        0.42099
O          3.32142        6.15421        1.94193
C          7.37530        2.82607       -0.40757
H          1.07483       -1.67616       -0.85607
H          1.48259       -0.68199       -2.27310
H          0.72602        0.06726       -0.85638
H          3.54910       -1.19110       -0.89290
H          2.79605       -0.44598        0.51425
H          2.68642        1.75371       -0.72665
H          3.45189        1.00551       -2.11724
H          5.52928        0.55464       -0.73425
H          4.76505        1.41504        0.64137
H          4.04804        3.39298       -1.95295
H          5.94035        2.25491       -2.60389
H          6.05999        4.45328       -1.96401
H          5.53742        4.31657        1.17305
H          3.88953        3.72647        0.69830
H          3.81796        5.54963       -1.08730
H          5.33584        6.19472       -0.51505
H          3.67838        5.23176        1.93902
H          7.33635        2.14127        0.45199
H          7.73620        3.81296       -0.08600
H          8.04520        2.41992       -1.17919
