13

S          0.96868       -0.04866       -0.21793
C          2.80765       -0.10834        0.01175
C          3.33755       -1.41117       -0.58039
C          4.88110       -1.41649       -0.60127
N          5.29135       -1.19133        0.74891
Br         7.25187       -1.18364        0.74754
H          0.73634        1.07146        0.50746
H          3.04893       -0.05431        1.07754
H          3.25427        0.75446       -0.50108
H          2.96265       -1.54141       -1.61078
H          2.97612       -2.25805        0.02510
H          5.19921       -0.63204       -1.35121
H          5.20219       -2.39292       -1.06644
