55

C          0.64126       -2.02442       -5.87094
O          2.04155       -2.04082       -6.06229
C          2.69474       -1.02170       -5.31142
C          4.19576       -1.12721       -5.54658
O          4.80053       -0.08030       -4.81664
C          6.23301       -0.10199       -4.89594
C          6.75413        1.00382       -3.98367
C          8.28982        1.09591       -3.97797
S          8.74689        2.56424       -2.95357
O         10.11929        2.97463       -3.22198
O          7.67840        3.56173       -2.98472
C          8.78569        2.00119       -1.10034
C          9.22891        3.16327       -0.13503
C          8.96672        2.87191        1.39105
F          9.47308        1.68381        1.76863
F          9.56665        3.83772        2.12992
F          7.65150        2.89355        1.67961
F         10.56372        3.37373       -0.27100
F          8.57457        4.32033       -0.41579
F          7.53755        1.59757       -0.73852
F          9.65620        0.98826       -0.92867
C          8.97170       -0.28807       -3.35038
O          8.18767       -0.93860       -2.62898
O         10.14062       -0.49283       -3.72265
C          8.93190        1.36568       -5.35668
C          8.38873        2.54910       -6.16591
C          9.05016        2.64892       -7.54288
C          8.49422        3.80130       -8.37633
N          9.13580        3.85428       -9.68434
C          8.77028        4.79217      -10.63336
N          7.96294        5.79015      -10.49984
N          9.38834        4.56966      -11.87759
H          0.21864       -2.83624       -6.47743
H          0.19531       -1.06357       -6.19448
H          0.37190       -2.18963       -4.80961
H          2.47897       -1.13514       -4.23150
H          2.33765       -0.02032       -5.62229
H          4.41297       -1.04344       -6.63166
H          4.56288       -2.11643       -5.20900
H          6.53641        0.05513       -5.95066
H          6.61845       -1.07924       -4.55820
H          6.41582        0.76908       -2.96678
H          6.30082        1.95925       -4.28437
H          8.79945        0.43244       -5.92848
H         10.01509        1.45523       -5.20513
H          8.55234        3.49070       -5.61803
H          7.29720        2.45634       -6.29634
H          8.89945        1.70045       -8.09082
H         10.13893        2.77506       -7.42606
H          8.67550        4.75667       -7.85712
H          7.39620        3.69088       -8.47490
H          9.41287        2.95115      -10.05981
H          7.48774        5.76074       -9.59438
H         10.37933        4.34880      -11.80800
H          9.22468        5.36300      -12.49231
