23

F          1.50882       -0.08088        0.46189
Sb         3.37084        0.00534       -0.44210
C          3.66749        2.02331        0.84926
C          5.06585        2.66107        0.86870
F          5.98962        1.78929        1.35556
F          5.45579        3.02085       -0.38125
F          5.15940        3.79145        1.64414
F          2.81741        3.00847        0.36208
F          3.32601        1.84570        2.18733
C          4.03360       -1.10429        1.37505
C          3.72304       -2.59057        1.28592
S          5.08168       -3.47416        0.44081
C          4.34702       -5.12744        0.33714
H          2.96888       -1.48741       -1.30376
H          2.58290        1.06489       -1.58963
H          4.97414        0.18477       -1.17343
H          3.45970       -0.64279        2.18619
H          5.10312       -0.90487        1.53576
H          2.79647       -2.76087        0.71013
H          3.59446       -3.04743        2.28273
H          5.06479       -5.77401       -0.18432
H          3.40864       -5.10408       -0.23514
H          4.15447       -5.54561        1.33637
