32

N          2.00661       -1.09706        0.72603
C          2.31036       -0.16770       -0.38433
C          2.93632        1.16109        0.03352
P          4.72828        0.98690        0.79496
C          5.55654        1.23362       -1.02533
C          7.03504        0.88891       -1.00437
C          7.80033        0.89173       -2.32292
O          8.99354        0.68932       -2.44165
O          7.04122        1.14641       -3.43106
C          4.85700        2.90414        1.19709
C          4.76890        3.16461        2.68461
N          5.10566        4.57099        3.03891
H          1.47198       -0.57840        1.42916
H          2.90133       -1.29678        1.18456
H          1.37835       -0.01415       -0.96061
H          3.00246       -0.70359       -1.05900
H          2.31252        1.63856        0.81135
H          2.97076        1.85199       -0.82741
H          4.73388       -0.49427        0.50119
H          6.09498        0.83369        1.38424
H          4.14558        0.71170        2.14107
H          5.37468        2.26963       -1.35846
H          4.98568        0.53704       -1.66446
H          7.17790       -0.11555       -0.56542
H          7.58704        1.56072       -0.32642
H          6.12887        1.28546       -3.08372
H          4.10502        3.49415        0.64834
H          5.85557        3.20825        0.83276
H          5.42263        2.43073        3.19962
H          3.74305        2.97232        3.04073
H          6.00588        4.79828        2.60823
H          5.25649        4.64454        4.04959
