24

S          0.98453        0.25932        0.23708
P          3.43142       -0.14560       -0.06657
C          3.63170        1.58516        0.74584
C          4.12252        1.70832        2.03990
C          4.26615        2.97425        2.63545
C          3.90091        4.12533        1.94049
C          3.39465        3.99809        0.63774
C          3.26639        2.73856        0.04704
C          3.01138        5.24783       -0.10008
F          2.19173        6.06389        0.63758
F          4.10589        6.02309       -0.41433
F          2.36846        5.00700       -1.26994
C          4.81148        3.06970        4.03022
F          4.02247        2.42915        4.94703
F          6.05163        2.49733        4.14440
F          4.94342        4.35549        4.47285
H          0.67129       -0.66687       -0.69874
H          3.11900       -1.44437       -0.66874
H          3.43267       -0.73784        1.27480
H          3.28790        0.52776       -1.36506
H          4.87834       -0.33265       -0.22845
H          4.38303        0.79942        2.59392
H          4.00150        5.10529        2.40441
H          2.85973        2.63035       -0.96232
