62

C          7.29101       -1.20382       -2.05983
C          6.42085       -0.77915       -0.87013
C          6.49691        0.70442       -0.53152
P          5.33146        1.19427        0.92550
C          4.08356        1.57233        2.46811
F          4.33885        0.74416        3.54542
F          4.10148        2.85103        3.00406
F          2.75601        1.34311        2.15350
C          5.79605        3.08082        0.69769
C          5.02538        3.92341       -0.11038
C          5.36412        5.26693       -0.30019
C          6.50469        5.82465        0.31291
C          7.28441        4.96890        1.12259
C          6.92989        3.63089        1.30889
Si         6.96950        7.62734        0.12620
C          7.02699        8.44213        1.85445
C          5.75185        8.20196        2.67364
C          5.81636        8.82334        4.05652
C          4.52689        8.71332        4.94812
C          3.88330        7.30640        5.24923
C          4.69609        6.16745        5.99207
C          5.24726        6.47120        7.43517
C          5.71064        5.19457        8.23493
F          4.66618        4.42812        8.58911
F          6.57735        4.46024        7.51976
F          6.32880        5.60841        9.36523
F          6.32015        7.29493        7.34579
F          4.28737        7.07934        8.18332
F          3.83123        5.12341        6.09925
F          5.73198        5.79495        5.20404
F          2.75973        7.55003        5.98184
F          3.49892        6.76296        4.06434
F          4.76678        9.32028        6.14644
F          3.54029        9.42117        4.31532
F          6.86370        8.31302        4.78530
F          6.04232       10.18569        3.96449
C          8.69285        7.83229       -0.63128
C          5.71131        8.56017       -0.93866
H          7.20366       -2.28236       -2.27202
H          8.35375       -0.98494       -1.87029
H          7.00493       -0.65819       -2.97273
H          6.70526       -1.36835        0.01916
H          5.36826       -1.04604       -1.07371
H          6.20886        1.31326       -1.40622
H          7.52817        0.98751       -0.25504
H          4.92665       -0.20710        1.16271
H          6.41664        1.07533        1.93641
H          4.18186        1.39462        0.00401
H          4.13124        3.51029       -0.59270
H          4.72600        5.89352       -0.93211
H          8.18099        5.35635        1.62140
H          7.53956        2.98757        1.95492
H          7.21574        9.52118        1.73900
H          7.89347        8.02690        2.39347
H          5.57553        7.12294        2.78679
H          4.86597        8.61865        2.17110
H          9.44376        7.28199       -0.04649
H          8.99811        8.88873       -0.66971
H          8.71435        7.43229       -1.65490
H          4.69642        8.50529       -0.52066
H          5.67096        8.14617       -1.95599
H          5.98577        9.62225       -1.01970
