58

C          3.76664       -3.45615       -1.90045
S          3.80154       -1.75520       -1.25966
C          4.45872       -2.04028        0.44833
C          4.60572       -0.75005        1.23171
Al         5.37407       -0.98166        3.11246
C          4.22764       -2.25496        4.21959
C          4.16792       -3.65261        4.01701
C          3.40629       -4.50098        4.82581
C          2.65041       -3.99613        5.90491
C          2.69336       -2.60469        6.12075
C          3.45844       -1.76978        5.29921
Si         1.65914       -5.14609        6.99539
C          2.84114       -6.43609        7.76610
C          2.15222       -7.49827        8.62884
C          3.08967       -8.53957        9.20171
F          4.05292       -7.99897        9.99991
F          2.41531       -9.45155        9.97162
F          3.73448       -9.25346        8.23572
C          0.80448       -4.19962        8.39508
C          0.34954       -6.07764        5.98937
C          7.27746       -1.71835        3.03751
C          8.34810       -0.64046        2.83121
C          9.78236       -1.20955        2.83152
C         10.87276       -0.16359        2.74727
C         12.32545       -0.73029        2.73104
F         12.56873       -1.46613        3.84276
F         12.51961       -1.52936        1.65347
F         13.24871        0.25765        2.68204
F         10.75713        0.60443        1.60682
F         10.82362        0.70562        3.81767
H          3.37149       -3.41995       -2.92440
H          3.11065       -4.09685       -1.29295
H          4.77506       -3.89466       -1.92693
H          5.42546       -2.55689        0.32952
H          3.76241       -2.73521        0.94459
H          3.62579       -0.24957        1.32037
H          5.26163       -0.04884        0.68479
H          5.36418        0.47151        3.88282
H          4.74478       -4.10487        3.20229
H          3.40659       -5.57703        4.61421
H          2.12470       -2.16388        6.94620
H          3.46871       -0.69506        5.51118
H          3.59210       -5.89230        8.36023
H          3.39248       -6.91827        6.94334
H          1.39457       -8.05425        8.05590
H          1.63656       -7.04564        9.48949
H          1.53521       -3.67948        9.03062
H          0.21675       -4.87338        9.03587
H          0.11516       -3.44345        7.99292
H          0.81585       -6.64325        5.16961
H         -0.35427       -5.36535        5.53561
H         -0.23299       -6.78219        6.60180
H          7.37010       -2.48679        2.24591
H          7.47774       -2.24798        3.98797
H          8.26579        0.11931        3.62414
H          8.18219       -0.10627        1.88167
H          9.91570       -1.90262        1.98629
H          9.95151       -1.78757        3.75305
