47

C          0.95885       -0.67755        0.08895
C          2.37834       -0.12935        0.27324
C          2.96077        0.51509       -0.99551
C          4.36481        1.10907       -0.84706
Ga         5.17146        1.72725       -2.62594
C          4.00837        3.17133       -3.50631
C          3.70988        4.40780       -2.65985
C          2.69074        5.34901       -3.33693
C          2.35967        6.59829       -2.55220
C          1.29078        7.52205       -3.21097
F          1.69945        7.93799       -4.43486
F          0.11635        6.86494       -3.36789
F          1.04893        8.62338       -2.46268
F          1.87066        6.29871       -1.29742
F          3.47541        7.39017       -2.36440
C          7.14027        2.27910       -2.40760
C          8.00033        1.05753       -2.07738
C          9.51197        1.36415       -2.00579
C         10.37171        0.17261       -1.64215
C         11.90483        0.45236       -1.59249
F         12.36321        0.85079       -2.80417
F         12.19074        1.43097       -0.69937
F         12.60381       -0.64885       -1.23137
F         10.04493       -0.32548       -0.39666
F         10.21403       -0.86474       -2.53818
H          0.57311       -1.15295        1.00429
H          0.92763       -1.42848       -0.71619
H          0.25919        0.12630       -0.18956
H          3.05088       -0.94308        0.59678
H          2.38712        0.61204        1.09135
H          2.25914        1.29836       -1.34030
H          2.96497       -0.24433       -1.79983
H          5.04206        0.34102       -0.42955
H          4.34636        1.93166       -0.10836
H          5.17685        0.45270       -3.63926
H          3.05967        2.67391       -3.77933
H          4.47693        3.47297       -4.46048
H          4.63765        4.96812       -2.46118
H          3.31270        4.11072       -1.67595
H          1.74955        4.80527       -3.51271
H          3.06799        5.66539       -4.32177
H          7.26334        3.05026       -1.62588
H          7.48318        2.73254       -3.35546
H          7.83328        0.27377       -2.83351
H          7.68386        0.62402       -1.11512
H          9.70463        2.15052       -1.25960
H          9.86368        1.74646       -2.97687
