28

C          1.19682        1.56274        2.49009
O          2.48595        1.47142        1.91636
C          2.87493        0.11738        1.67433
C          4.37529        0.04141        1.47812
O          5.00633        0.06897        2.75113
C          6.45616        0.20057        2.72022
C          6.88969       -0.33962        4.06478
Ta         5.33467       -1.91077        4.44554
C          4.40761       -2.54651        6.41827
F          4.11399       -1.42804        7.23074
F          3.15930       -3.18549        6.27154
F          5.06798       -3.39316        7.29637
O          5.31749       -2.76857        2.66335
H          0.98132        2.62998        2.63766
H          1.15107        1.04579        3.46580
H          0.41726        1.13185        1.82946
H          2.35705       -0.26638        0.77109
H          2.60519       -0.52303        2.53385
H          4.71752        0.89820        0.86524
H          4.63518       -0.90009        0.95851
H          6.69474        1.26225        2.49115
H          6.85185       -0.42540        1.89919
H          6.83757        0.42500        4.85818
H          7.91323       -0.73768        4.05346
H          6.55701       -2.01945        5.72803
H          5.74901       -3.60052        4.80565
H          3.67645       -1.25225        4.65745
H          5.54644       -3.70619        2.68111
