32

C          0.94386       -0.11814       -0.01826
C          2.47334       -0.10713       -0.10475
C          3.04153        1.13506       -0.79847
C          4.56850        1.14599       -0.90498
C          5.15357        2.42556       -1.52168
N          6.55938        2.38828       -1.61162
C          7.05787        3.58975       -2.14157
C          8.59596        3.61384       -2.20599
C          9.20118        2.39746       -2.92760
C          8.64218        2.15318       -4.32948
N          8.91717        3.29214       -5.24222
H          0.56449       -1.01463        0.49639
H          0.49106       -0.09229       -1.02190
H          0.57299        0.76309        0.52851
H          2.81816       -1.01052       -0.63760
H          2.89935       -0.17806        0.91136
H          2.70772        2.03619       -0.25146
H          2.60153        1.21757       -1.80937
H          4.91090        0.28534       -1.50653
H          5.01613        1.01611        0.09647
H          4.75790        3.30314       -0.90667
H          4.63806        2.58133       -2.52989
H          6.73574        4.52064       -1.56984
H          6.66986        3.82465       -3.20064
H          8.98851        3.62557       -1.17426
H          8.93210        4.55323       -2.68401
H          8.96418        1.50922       -2.32258
H         10.30011        2.50082       -2.98403
H          7.56504        1.93138       -4.22408
H          9.12594        1.26081       -4.76297
H          8.41369        4.10309       -4.86800
H          8.46652        3.10427       -6.14184
