69

S          4.88206       -1.43346        8.23549
C          6.23298       -0.50074        7.39254
C          6.43236       -1.04713        5.97729
C          5.21654       -0.94647        5.07145
P          5.69767       -1.32413        3.20845
C          4.97040       -3.14917        3.23040
C          3.72526       -3.56108        3.73093
C          3.34328       -4.90745        3.73569
C          4.19564       -5.91097        3.23139
C          5.43883       -5.49495        2.70849
C          5.80603       -4.14758        2.71293
Si         3.69433       -7.71099        3.32119
C          1.95730       -7.93661        2.55618
C          1.86808       -7.48324        1.09310
C          0.47777       -7.65998        0.50937
C          0.24652       -7.14313       -0.95709
C          1.11754       -7.70357       -2.14596
C          1.09763       -9.23864       -2.53367
C         -0.27902       -9.89428       -2.92516
C         -0.14466      -11.27356       -3.67807
F          0.67315      -12.11305       -3.01506
F         -1.36714      -11.83864       -3.75352
F          0.31940      -11.10867       -4.92869
F         -1.00478      -10.12100       -1.80552
F         -0.97320       -9.06415       -3.74615
F          1.92051       -9.34454       -3.61898
F          1.64664       -9.95391       -1.52046
F          0.75109       -7.00774       -3.25609
F          2.42534       -7.41842       -1.88825
F         -1.06118       -7.34449       -1.29463
F          0.47781       -5.79948       -0.95636
F          0.09019       -8.98370        0.53648
F         -0.45192       -6.97233        1.25683
C          4.92201       -8.80938        2.38707
C          3.57038       -8.30790        5.11321
C          3.98004       -0.57795        2.53102
C          4.17141        0.84834        2.03972
C          2.98468        1.55011        1.38810
O          2.99301        2.69439        0.97965
O          1.84734        0.79903        1.27945
H          5.16516       -1.00660        9.48978
H          7.14588       -0.60928        7.99634
H          5.95137        0.56181        7.35800
H          6.76910       -2.09538        6.03981
H          7.26624       -0.48280        5.51766
H          4.82661        0.08652        5.07787
H          4.41235       -1.60929        5.42587
H          6.99803       -1.90987        3.62786
H          6.33362        0.02517        3.16027
H          6.08954       -1.56222        1.78541
H          3.03059       -2.82285        4.14177
H          2.36528       -5.17672        4.15146
H          6.13243       -6.23655        2.29913
H          6.78031       -3.84315        2.31131
H          1.24186       -7.36470        3.16733
H          1.66847       -8.99627        2.64480
H          2.56801       -8.05240        0.46536
H          2.14091       -6.42138        0.99765
H          5.02245       -8.51439        1.33290
H          4.60364       -9.86195        2.41687
H          5.92173       -8.75098        2.84062
H          2.86704       -7.68415        5.68323
H          4.54785       -8.23870        5.61109
H          3.22743       -9.35166        5.17319
H          3.21106       -0.63110        3.32045
H          3.70457       -1.25888        1.70793
H          4.99727        0.88966        1.30794
H          4.50085        1.50621        2.86067
H          2.07194       -0.07449        1.67199
