39

I          4.23267       -0.17489        2.58089
C          3.18505        0.10897        0.74299
C          1.99242       -0.57059        0.50011
C          1.33645       -0.47518       -0.79117
C          0.12150       -1.09332       -1.04810
C         -0.55163       -1.87485       -0.09039
C          0.08305       -2.00453        1.16096
C          1.29162       -1.39474        1.45760
C         -0.61157       -2.82444        2.20848
F         -1.76967       -2.23107        2.65850
F         -0.99997       -4.05691        1.74156
F          0.14047       -3.06171        3.31908
C         -0.52662       -0.92788       -2.39054
F          0.25404       -0.29075       -3.31213
F         -0.87997       -2.12632       -2.96040
F         -1.69465       -0.20307       -2.32654
C          3.96530        0.88214       -0.27144
C          4.93510        0.04256       -1.13389
C          5.65742        0.86946       -2.19898
C          6.65926        0.05785       -3.01567
N          7.28195        0.88826       -4.04112
C          8.28058        0.40560       -4.86631
N          8.73067       -0.80083       -4.95562
N          8.83675        1.40955       -5.68190
H          1.80357        0.09604       -1.59057
H         -1.49099       -2.37440       -0.31346
H          1.73527       -1.53884        2.44160
H          4.54299        1.68710        0.21674
H          3.25679        1.40001       -0.94698
H          4.36838       -0.77171       -1.61407
H          5.66872       -0.43759       -0.46506
H          6.18823        1.70810       -1.71090
H          4.91920        1.32155       -2.88323
H          6.14468       -0.78290       -3.50941
H          7.42005       -0.37994       -2.34016
H          7.36281        1.87277       -3.80156
H          8.33400       -1.39575       -4.22361
H          8.13968        2.00963       -6.11810
H          9.45055        0.98845       -6.37522
