80

C          0.84308       -0.00170       -0.12212
C          2.33999       -0.23368        0.10181
C          2.85599        0.34764        1.42287
C          4.35299        0.12022        1.65529
C          4.86377        0.67458        2.98921
C          6.36330        0.45543        3.21385
C          6.86873        0.98125        4.56270
C          8.38003        0.80919        4.77245
Si         9.03776        1.49765        6.42344
C          8.47314        3.25598        6.64269
C          8.66258        4.20457        5.60693
C          8.21942        5.51375        5.70214
C          7.53884        6.01179        6.85895
C          7.38571        5.05397        7.91079
C          7.82495        3.74096        7.79945
C          7.11120        7.37937        7.01091
C          6.77717        8.24589        5.92846
C          6.60933        9.66236        6.10194
C          6.28511       10.50900        5.04742
C          6.07308       10.03689        3.74460
C          6.17105        8.64386        3.56138
C          6.49668        7.78230        4.59650
C          5.86528        8.09425        2.19892
F          4.55465        8.29197        1.83287
F          6.60982        8.69771        1.21508
F          6.09140        6.75751        2.07953
C          6.22302       11.98957        5.28781
F          5.98285       12.32239        6.58918
F          7.39564       12.62572        4.95062
F          5.24918       12.60662        4.54866
C          7.03055        7.92682        8.42208
C          5.60847        8.02478        8.97235
O          5.66258        8.56554       10.30094
C          4.39265        8.71164       10.89989
C          4.62983        9.24697       12.30501
O          3.37350        9.39611       12.95897
C          3.51629        9.86586       14.28395
C          8.41752        0.39649        7.83701
C         10.93097        1.37418        6.35726
H          0.50267       -0.43193       -1.07507
H          0.60532        1.07245       -0.13878
H          0.24445       -0.45685        0.68140
H          2.90979        0.20532       -0.73467
H          2.55302       -1.31623        0.07499
H          2.28545       -0.09242        2.26039
H          2.64314        1.43073        1.45210
H          4.92304        0.57916        0.82810
H          4.56889       -0.96238        1.60442
H          4.29867        0.20916        3.81657
H          4.64345        1.75460        3.04585
H          6.92821        0.94800        2.40233
H          6.59450       -0.62230        3.13027
H          6.31733        0.47211        5.37326
H          6.61161        2.04931        4.65631
H          8.92407        1.31971        3.95758
H          8.66316       -0.25660        4.69733
H          9.19282        3.91178        4.69392
H          8.45095        6.19891        4.88673
H          6.87540        5.34680        8.82976
H          7.64221        3.06775        8.64255
H          6.75141       10.10742        7.08434
H          5.82002       10.70699        2.92664
H          6.49878        6.71375        4.39853
H          7.48752        8.92962        8.48832
H          7.61835        7.29568        9.10464
H          5.13363        7.02430        8.99580
H          4.98132        8.67238        8.32988
H          3.85551        7.74263       10.95196
H          3.75394        9.41488       10.32808
H          5.15862       10.21841       12.24968
H          5.27788        8.54403       12.86413
H          2.50936        9.94045       14.71426
H          3.99697       10.86281       14.31702
H          4.11997        9.17204       14.90085
H          7.32062        0.40976        7.90423
H          8.81667        0.72787        8.80624
H          8.73681       -0.64430        7.68006
H         11.32801        2.02975        5.56867
H         11.26757        0.34711        6.14912
H         11.37428        1.69675        7.31003
