64

N          1.35044       -1.22976        2.65557
C          2.62854       -0.73967        2.09871
C          3.20185       -1.73121        1.08808
C          4.54465       -1.29368        0.47458
C          5.21139       -2.37247       -0.37029
Sb         7.40255       -2.03713       -0.95598
C          7.87176       -1.52430        1.26291
C          7.52353       -2.32278        2.36618
C          7.80564       -1.93122        3.68032
C          8.45650       -0.70951        3.95498
C          8.81333        0.08935        2.84858
C          8.52349       -0.31560        1.54014
Si         8.82252       -0.19889        5.72037
C         10.01075       -1.44962        6.54413
C         11.23910       -1.79574        5.69549
C         12.23316       -2.69303        6.39863
F         11.68285       -3.87033        6.81261
F         13.28618       -3.01661        5.59157
F         12.76917       -2.10389        7.51286
C          9.62707        1.51401        5.77878
C          7.25485       -0.18064        6.78238
C          7.77266       -4.26646       -0.52577
C          8.68195       -4.97755       -1.51357
C          8.81709       -6.47415       -1.15746
C          9.67931       -7.29111       -2.09518
C          9.81411       -8.79580       -1.70295
F         10.37662       -8.92608       -0.47766
F          8.59927       -9.39595       -1.66754
F         10.58274       -9.47606       -2.58375
F          9.18204       -7.28068       -3.38178
F         10.96687       -6.80311       -2.16190
H          1.03983       -0.61976        3.41424
H          1.50321       -2.14770        3.08053
H          3.39581       -0.54574        2.87454
H          2.42831        0.22474        1.60325
H          2.45625       -1.91624        0.29697
H          3.35182       -2.70105        1.59920
H          5.21953       -1.00241        1.29825
H          4.39203       -0.37988       -0.12513
H          4.68457       -2.53410       -1.32500
H          5.20932       -3.33085        0.17446
H          7.05628       -2.42526       -2.68337
H          7.12071       -0.27490       -1.20693
H          9.15573       -1.81435       -1.30861
H          7.00479       -3.27437        2.20945
H          7.50487       -2.58793        4.50604
H          9.31818        1.04752        3.01101
H          8.80371        0.33908        0.70539
H          9.44758       -2.36981        6.76535
H         10.32339       -1.03455        7.51650
H         11.79883       -0.89523        5.39996
H         10.94194       -2.30375        4.76681
H         10.57284        1.54699        5.21937
H          9.84086        1.80447        6.81803
H          8.96225        2.27540        5.34672
H          6.74518       -1.15411        6.74789
H          6.54604        0.57716        6.42000
H          7.48586        0.04301        7.83493
H          6.77499       -4.73450       -0.51663
H          8.18549       -4.32387        0.49386
H          9.68037       -4.51160       -1.52060
H          8.28135       -4.88216       -2.53611
H          7.82099       -6.94272       -1.13902
H          9.23797       -6.58022       -0.14558
