20

Ga         1.31219        0.30084       -0.11227
C          0.08281        0.76990        1.41811
C         -1.10274        1.65324        1.00318
C          0.47549       -0.83577       -1.60393
C         -0.30196       -0.00236       -2.62482
C         -0.89786       -0.73283       -3.82972
O         -1.57212       -0.21210       -4.69745
O         -0.61928       -2.06670       -3.88396
Br         3.08397       -1.16406        0.82599
H          2.05665        1.55727       -0.77362
H          0.69413        1.28537        2.17617
H         -0.27364       -0.16036        1.88830
H         -0.76503        2.57990        0.51097
H         -1.73926        1.95722        1.85482
H         -1.76270        1.13894        0.28572
H         -0.16204       -1.59916       -1.12668
H          1.34155       -1.34001       -2.06657
H          0.33052        0.79966       -3.04242
H         -1.14750        0.52979       -2.15820
H         -0.07348       -2.24303       -3.08066
