61

O          2.74717        0.84651       -1.60352
In         3.57075        0.39467        0.26395
C          1.83283        0.50967        1.83864
C          0.42818       -0.13348        1.68542
C          0.38502       -1.69742        1.78320
C         -0.95382       -2.37348        1.30779
F         -2.02763       -1.86434        1.94855
F         -1.14325       -2.24347       -0.01655
F         -0.89715       -3.69953        1.58850
F          1.37616       -2.24335        1.03370
F          0.56110       -2.07923        3.08138
F         -0.45574        0.32997        2.64295
F         -0.08540        0.22991        0.46895
F          2.29364        0.09876        3.10299
F          1.54060        1.87527        1.99055
C          4.30162       -1.65506       -0.11821
C          4.42600       -2.09213       -1.45201
C          4.94185       -3.35400       -1.76611
C          5.35177       -4.25285       -0.75943
C          5.19776       -3.83108        0.57575
C          4.68891       -2.56370        0.88305
Si         6.20008       -5.86768       -1.20114
C          7.96527       -5.44050       -1.77759
C          8.91156       -6.59813       -2.12625
C         10.30707       -6.12284       -2.55175
C         11.29519       -7.25074       -2.86331
C         12.68595       -6.74280       -3.25740
C         13.70010       -7.85295       -3.54771
C         15.08815       -7.32799       -3.92907
C         16.10437       -8.43795       -4.20777
C          6.29457       -7.02304        0.29825
C          5.28487       -6.76844       -2.59598
H          2.38490        1.74404       -1.59687
H          4.66874        1.63820        0.86108
H          4.10905       -1.42768       -2.26149
H          5.03047       -3.63985       -2.82051
H          5.48252       -4.49877        1.39536
H          4.59157       -2.28814        1.93792
H          8.41375       -4.82289       -0.97954
H          7.86720       -4.76250       -2.64389
H          8.47870       -7.21285       -2.93518
H          9.01519       -7.27299       -1.25832
H         10.72425       -5.48647       -1.75143
H         10.20901       -5.46704       -3.43479
H         10.89145       -7.88193       -3.67486
H         11.38489       -7.91084       -1.98214
H         13.07638       -6.09850       -2.44984
H         12.59633       -6.09104       -4.14444
H         13.31820       -8.49647       -4.36023
H         13.78994       -8.50661       -2.66177
H         15.46347       -6.67971       -3.11920
H         14.99757       -6.67930       -4.81681
H         16.24337       -9.08039       -3.32517
H         17.08764       -8.02853       -4.48002
H         15.77149       -9.08314       -5.03490
H          6.87787       -6.57829        1.11718
H          6.77073       -7.97720        0.02846
H          5.29057       -7.24691        0.68613
H          5.17217       -6.12744       -3.48192
H          4.27687       -7.06217       -2.26995
H          5.81960       -7.67919       -2.90470
