30

I          0.83538       -1.12824       -0.00977
C          2.94126       -1.12222        0.27020
C          3.59232       -0.00988        0.74284
C          3.10364        0.95668        1.82602
C          2.90713        0.32211        3.26813
C          4.12050       -0.41380        3.93644
F          5.22386        0.35703        3.97171
F          3.78863       -0.71058        5.22482
F          4.41440       -1.57142        3.32297
F          2.57441        1.34215        4.12645
F          1.87168       -0.55972        3.26656
F          3.99715        1.97097        2.02592
F          1.89270        1.51042        1.53361
F          4.94833       -0.18561        0.93439
F          3.78169        1.39398       -0.51489
C          3.64520       -2.23091       -0.46869
C          3.78808       -2.04712       -1.99797
C          4.77286       -0.94077       -2.38115
C          4.73631       -0.57515       -3.86068
N          5.69145        0.51744       -4.13457
H          3.11344       -3.17699       -0.27302
H          4.65137       -2.34226       -0.03037
H          2.79109       -1.82029       -2.41442
H          4.10042       -3.01086       -2.44191
H          5.80000       -1.23943       -2.10878
H          4.53097       -0.03393       -1.79542
H          3.69176       -0.31351       -4.12734
H          5.01893       -1.43985       -4.48912
H          5.50353        1.27430       -3.47110
H          5.52242        0.90618       -5.06419
