46

C          2.00108       -2.05057        2.19808
C          3.36301       -1.89847        1.51710
C          3.26797       -1.21236        0.15288
C          4.60788       -1.06563       -0.59267
C          5.30966       -2.35628       -0.99948
S          4.80264       -3.17032       -2.40470
O          3.80949       -2.34581       -3.08841
O          5.86867       -3.81391       -3.15489
C          3.75517       -4.68332       -1.82556
C          2.87347       -5.43464       -2.88652
C          3.51984       -6.08775       -4.16822
C          4.62315       -7.19232       -3.99095
F          4.17114       -8.20149       -3.21437
F          4.89838       -7.70570       -5.21759
F          5.75407       -6.71495       -3.47518
F          2.48446       -6.70387       -4.82654
F          4.01208       -5.12541       -4.97718
F          2.22840       -6.45103       -2.22134
F          1.91993       -4.58489       -3.35059
F          4.55881       -5.60689       -1.23678
F          2.86302       -4.24829       -0.88101
S          6.70892       -2.84921       -0.17588
O          6.73253       -2.24395        1.15272
O          7.03571       -4.25367       -0.35289
C          8.18162       -1.95051       -1.03636
C          9.55368       -1.85241       -0.28109
C         10.31731       -3.15749        0.16568
C         10.75054       -4.20247       -0.92579
F         11.45701       -3.60920       -1.91217
F         11.55985       -5.11586       -0.32984
F          9.71215       -4.84787       -1.45517
F         11.48222       -2.72128        0.74551
F          9.60110       -3.81015        1.10669
F         10.41783       -1.15908       -1.09675
F          9.38948       -1.11692        0.84884
F          8.42718       -2.50777       -2.25134
F          7.80119       -0.64899       -1.24500
H          2.09041       -2.54290        3.17774
H          1.31762       -2.65530        1.58247
H          1.51994       -1.07240        2.35887
H          3.82670       -2.88854        1.39272
H          4.04867       -1.32984        2.16639
H          2.84819       -0.19839        0.28644
H          2.55570       -1.75495       -0.48817
H          5.30958       -0.50909        0.04578
H          4.44451       -0.45548       -1.49286
