65

C          0.81572        0.05845        0.11091
C          2.34669        0.05802        0.07193
C          2.92227       -0.48813       -1.23941
C          4.45329       -0.47772       -1.29994
C          5.01945       -1.03252       -2.61103
C          6.54825       -0.98784       -2.70441
C          7.09023       -1.55289       -4.02353
C          8.61621       -1.48452       -4.17135
Si         9.29066       -2.22525       -5.80569
C          8.75375       -3.97062       -6.06711
C          7.40605       -4.29013       -6.41783
C          6.96093       -5.58648       -6.56113
C          7.82358       -6.73074       -6.37968
C          9.18892       -6.39796       -6.03206
C          9.60998       -5.08285       -5.88270
N          7.31500       -7.95133       -6.54826
C          8.20962       -9.05865       -6.38749
C          7.46016      -10.37822       -6.61266
C          8.36567      -11.60945       -6.56944
C          7.61493      -12.92102       -6.78839
N          8.54536      -14.04559       -6.83212
C          8.12490      -15.34390       -7.04543
N          6.91700      -15.79885       -7.09496
N          9.19886      -16.23595       -7.22875
C          8.67517       -1.08862       -7.20448
C         11.18254       -2.06164       -5.72180
H          0.43280        0.45265        1.06344
H          0.41395       -0.95860       -0.01308
H          0.39640        0.67656       -0.69745
H          2.73673       -0.53776        0.91487
H          2.71941        1.08448        0.23203
H          2.52137        0.10010       -2.08436
H          2.55817       -1.51926       -1.39453
H          4.85647       -1.06014       -0.45235
H          4.81571        0.55591       -1.15353
H          4.59042       -0.46796       -3.45841
H          4.67876       -2.07419       -2.74422
H          6.98627       -1.55171       -1.86138
H          6.89284        0.05537       -2.58146
H          6.61099       -1.01022       -4.85837
H          6.76403       -2.60118       -4.12570
H          9.09284       -2.03789       -3.34258
H          8.96098       -0.43693       -4.08174
H          6.68720       -3.48000       -6.58710
H          5.92245       -5.79387       -6.83251
H          9.91409       -7.20031       -5.88221
H         10.65945       -4.91195       -5.61527
H          8.68585       -9.09933       -5.37368
H          9.07390       -9.02662       -7.10117
H          6.94795      -10.31568       -7.58745
H          6.66303      -10.46064       -5.85426
H          8.89994      -11.65687       -5.60512
H          9.14363      -11.50995       -7.34989
H          7.02185      -12.85883       -7.72194
H          6.90124      -13.08686       -5.96439
H          9.45491      -13.82084       -7.22686
H          6.23824      -15.03342       -7.07766
H          9.95882      -16.10355       -6.56489
H          8.85706      -17.19344       -7.21950
H          7.58278       -1.14886       -7.31539
H          9.11748       -1.39363       -8.16361
H          8.93877       -0.03580       -7.01861
H         11.59660       -2.63207       -4.87793
H         11.47478       -1.00865       -5.59254
H         11.65074       -2.43717       -6.64279
