28

C          3.39486       -0.01505        2.15060
C          3.11973       -0.10549        0.63989
B          3.17929       -1.63488       -0.01455
C          2.06725       -2.65169        0.66592
C          0.60726       -2.22179        0.49630
C         -0.38037       -3.23975        1.09650
C         -1.84107       -2.87968        0.94844
C         -2.83814       -3.91538        1.55300
F         -2.69202       -5.13018        0.96909
F         -2.63117       -4.06959        2.88381
F         -4.12730       -3.53336        1.38175
F         -2.14026       -1.67912        1.56232
F         -2.20623       -2.74671       -0.37689
N          4.58317       -2.32546        0.09970
H          3.43504        1.01905        2.53942
H          4.35972       -0.48979        2.40262
H          2.62246       -0.54585        2.73308
H          3.86259        0.52436        0.11088
H          2.14168        0.37328        0.42930
H          2.90866       -1.52381       -1.23222
H          2.26804       -2.79266        1.75064
H          2.20143       -3.65197        0.21051
H          0.38901       -2.09011       -0.57591
H          0.44136       -1.24033        0.96971
H         -0.18001       -3.36861        2.17213
H         -0.23404       -4.22423        0.62408
H          4.88760       -2.39686        1.07674
H          5.30423       -1.76055       -0.35757
