13

C          0.99241        0.04110        0.04268
C          2.52311        0.00657        0.11236
C          3.04977       -0.57481        1.42251
C          2.55713       -2.07253        1.74016
O          2.54978       -2.74625        0.67918
O          2.25407       -2.34880        2.91128
Br         5.05957       -0.61701        1.28332
Br         2.62302        0.72343        2.90833
H          0.67154        0.45028       -0.92724
H          0.57053        0.66894        0.83943
H          0.58642       -0.97438        0.14091
H          2.94459        1.01214       -0.03387
H          2.90787       -0.65071       -0.67971
