14

S          1.13187        0.44194        0.45087
C          2.80746        0.20210        0.16023
C          3.31235       -0.08974       -1.15040
C          2.86985        0.84463       -2.32882
C          3.09960        2.38746       -2.13313
F          4.36073        2.66127       -1.74143
F          2.90597        3.01845       -3.33268
F          2.24642        2.94715       -1.26115
F          3.60949        0.51771       -3.44227
F          1.55819        0.68588       -2.66902
F          4.70079       -0.11859       -1.20196
F          2.98950       -1.44282       -1.73501
Cl         3.71298       -0.71502        1.44462
H          0.53428       -0.78113        0.17303
