34

F          1.92199        0.11567        0.76461
Nb         3.78663        0.36788        0.54549
C          4.84725       -1.53253        0.92007
C          6.23425       -1.78055        0.77477
C          6.80378       -3.02606        1.04341
C          6.01519       -4.10852        1.46454
C          4.64490       -3.89459        1.60659
C          4.07561       -2.63661        1.34498
C          3.75597       -5.00977        2.07781
F          4.37833       -6.22641        2.09694
F          3.29106       -4.80427        3.35256
F          2.64199       -5.16121        1.29880
C          8.28232       -3.24785        0.90624
F          8.93530       -2.21540        0.30777
F          8.89860       -3.43620        2.12079
F          8.57807       -4.36984        0.17263
C          4.05531        1.94069       -1.05522
C          3.58256        1.60373       -2.47447
C          3.67138        2.78313       -3.44827
N          3.18127        2.41261       -4.79359
H          4.63564        0.31807        2.09891
H          4.46372       -0.35352       -0.92143
H          4.36839        1.89185        1.22590
H          6.89048       -0.97659        0.43341
H          6.45597       -5.08357        1.66313
H          2.99461       -2.52926        1.47950
H          5.12106        2.23722       -1.07251
H          3.51475        2.83671       -0.69031
H          2.53761        1.24525       -2.46989
H          4.18362        0.76735       -2.87339
H          4.71687        3.15448       -3.45073
H          3.04365        3.61162       -3.07863
H          3.70168        1.59563       -5.12199
H          3.37726        3.16046       -5.46142
