50

C          0.33441       -1.10900       -3.43647
O          1.61194       -1.70325       -3.47152
C          2.33708       -1.48409       -2.26213
C          3.75349       -2.01292       -2.38538
O          4.53815       -1.11990       -3.13083
C          5.93354       -1.54215       -3.21302
C          6.79032       -0.52120       -3.92118
B          8.41201       -0.92288       -3.96368
C          9.25936       -0.28381       -2.69402
C          8.83620       -0.73466       -1.29112
C          9.70902       -0.20401       -0.14466
C          9.26894       -0.68915        1.23386
N         10.13629       -0.14710        2.30259
C          9.08779       -0.44389       -5.39588
C          9.02972        1.06313       -5.68567
C          9.66984        1.50175       -7.00961
C          9.62672        3.00997       -7.23811
N         10.26560        3.38477       -8.51884
H         -0.15271       -1.31817       -4.39842
H          0.39537       -0.01173       -3.29695
H         -0.29339       -1.52383       -2.62070
H          1.81811       -1.99388       -1.42279
H          2.37547       -0.40040       -2.03562
H          3.72761       -3.02487       -2.84603
H          4.16423       -2.13882       -1.35773
H          5.97297       -2.51527       -3.74103
H          6.28878       -1.72153       -2.17858
H          6.63752        0.45958       -3.42938
H          6.39581       -0.41013       -4.94932
H          8.51294       -2.17017       -3.89834
H          9.21711        0.82628       -2.71387
H         10.33306       -0.53587       -2.82221
H          8.83010       -1.84041       -1.25604
H          7.79240       -0.42286       -1.10244
H          9.71321        0.89932       -0.15322
H         10.75691       -0.51646       -0.31768
H          9.23329       -1.79767        1.22506
H          8.24052       -0.34308        1.43198
H         11.10579       -0.40293        2.10083
H          9.90958       -0.58656        3.19698
H          8.59576       -0.97503       -6.23601
H         10.15102       -0.76048       -5.43107
H          9.52083        1.61362       -4.86237
H          7.97537        1.39654       -5.67800
H          9.17577        0.99432       -7.85576
H         10.72538        1.16776       -7.02587
H         10.08454        3.51380       -6.36257
H          8.57648        3.34432       -7.27923
H         11.22578        3.03232       -8.52250
H         10.33978        4.40158       -8.58948
