20

F          2.52995       -0.94057       -0.75012
C          2.35131        0.18918        0.01095
In         2.52583       -0.22625        2.21941
S          4.56494       -1.91752        2.34051
O          4.01638       -3.28120        2.22877
O          5.70866       -1.54892        1.49507
C          5.36774       -1.83111        4.13049
C          4.61099       -2.58828        5.25122
F          4.68311       -3.92062        5.07850
F          5.14144       -2.30242        6.47177
F          3.31177       -2.21982        5.27227
F          6.62984       -2.32485        4.05665
F          5.42540       -0.51441        4.46783
S          3.06826        2.10165        3.29671
O          4.39972        2.67913        3.18455
O          1.91212        2.97336        3.10313
F          2.95863        1.66075        4.92166
F          3.22308        1.11892       -0.47874
F          1.09021        0.65126       -0.30663
H          1.23713       -0.90173        3.15621
