40

C          3.77717       -0.15125        3.59681
C          3.83151       -0.31558        2.07588
C          4.97640       -1.21245        1.59638
C          5.02948       -1.38834        0.07584
C          6.18784       -2.27050       -0.41868
C          6.24297       -2.46239       -1.92060
Sb         8.02240       -3.69657       -2.62532
C          7.50306       -3.09008       -4.78976
C          7.30544       -4.26068       -5.74550
C          6.44671       -3.97038       -6.99445
C          7.03104       -2.91198       -7.93609
C          9.83432       -4.85418       -3.30031
H          2.94482        0.49650        3.91088
H          4.70932        0.29261        3.97909
H          3.65024       -1.12482        4.09511
H          3.92780        0.67653        1.60157
H          2.87362       -0.72883        1.71467
H          4.88552       -2.20476        2.07375
H          5.93724       -0.79688        1.94970
H          5.10418       -0.39579       -0.40429
H          4.07393       -1.81919       -0.27450
H          6.12681       -3.25604        0.07892
H          7.14206       -1.82915       -0.07242
H          6.34791       -1.49906       -2.44657
H          5.34872       -2.98122       -2.30450
H          6.94241       -5.16093       -2.86384
H          9.06839       -2.20679       -2.44983
H          8.35437       -4.18268       -0.91134
H          8.30241       -2.40351       -5.10978
H          6.57176       -2.50672       -4.68547
H          6.82826       -5.09628       -5.19683
H          8.28762       -4.64644       -6.07434
H          5.44609       -3.64242       -6.66107
H          6.28967       -4.90823       -7.55992
H          7.18205       -1.95892       -7.40856
H          6.37157       -2.72324       -8.79777
H          8.01088       -3.22936       -8.32797
H         10.22018       -4.41992       -4.23428
H          9.56399       -5.90744       -3.46247
H         10.59682       -4.77661       -2.51292
