14

O          1.02007       -0.06323       -2.36090
N          2.53444        0.06323       -2.49562
C          2.92208        0.66290       -1.28334
C          4.45981        0.65957       -1.23309
C          5.01022        1.32092       -2.49141
S          6.84926        1.35318       -2.61562
H          0.84401       -0.54516       -3.18132
H          2.53723        0.14291       -0.35576
H          2.59620        1.75516       -1.12960
H          4.83062       -0.37568       -1.17357
H          4.80960        1.20866       -0.33905
H          4.63725        2.35199       -2.58317
H          4.66659        0.76178       -3.37232
H          7.09223        2.09425       -1.49722
