30

C          1.86672        0.47430        0.86719
C          2.92970       -0.29909        0.05851
B          2.85867       -0.04006       -1.54555
C          1.79800       -0.90276       -2.42693
C          0.32224       -0.57796       -2.13547
C         -0.66044       -1.27084       -3.08696
C         -2.12680       -0.97169       -2.77914
N         -3.00294       -1.65812       -3.72356
C         -4.37753       -1.56100       -3.67268
N         -5.10894       -0.98064       -2.77950
N         -5.00608       -2.19311       -4.76399
I          5.03864       -0.68424       -2.42952
H          1.99416        0.35355        1.95748
H          0.84053        0.15378        0.62973
H          1.91789        1.55267        0.64646
H          2.84796       -1.37872        0.29015
H          3.92159        0.00440        0.43125
H          2.84176        1.15371       -1.82745
H          1.95436       -1.98817       -2.27606
H          1.98400       -0.72204       -3.50085
H          0.16620        0.51511       -2.18527
H          0.06943       -0.87050       -1.10173
H         -0.50103       -2.36202       -3.05086
H         -0.43688       -0.95789       -4.12378
H         -2.29796        0.12269       -2.79959
H         -2.37194       -1.31626       -1.76055
H         -2.61064       -1.78594       -4.65217
H         -4.52836       -0.45539       -2.12076
H         -4.62254       -3.11155       -4.97682
H         -6.00878       -2.23962       -4.60079
