35

N          2.55881        0.60923        0.41162
C          2.90451       -0.82422        0.46173
C          3.35089       -1.34649       -0.91186
C          4.64749       -0.76276       -1.48821
Al         5.17855       -1.55283       -3.28439
C          3.77162       -1.05327       -4.70643
C          3.57072        0.43898       -4.98151
C          2.49138        0.84326       -5.98924
O          2.21346        1.98649       -6.29803
O          1.82473       -0.20426       -6.55206
C          7.04083       -0.92261       -3.86273
C          7.31654        0.55586       -3.66096
S          9.03742        1.02923       -4.16300
C          9.02046        2.80988       -3.79734
H          2.12406        0.90233        1.28762
H          1.86069        0.75965       -0.32060
H          2.06569       -1.45462        0.83040
H          3.73510       -0.94137        1.17913
H          2.51083       -1.18152       -1.61673
H          3.44186       -2.44425       -0.83212
H          5.46958       -0.95721       -0.77148
H          4.56244        0.33721       -1.53790
H          5.17873       -3.20015       -3.20494
H          2.83495       -1.51852       -4.34158
H          4.07454       -1.59119       -5.62470
H          4.50046        0.90550       -5.34822
H          3.33353        0.99044       -4.05606
H          2.23459       -1.00300       -6.13690
H          7.19294       -1.19450       -4.92287
H          7.77172       -1.51843       -3.28731
H          7.20253        0.84771       -2.60509
H          6.63670        1.18637       -4.25645
H         10.00675        3.21537       -4.05996
H          8.83596        2.99535       -2.72907
H          8.25547        3.33203       -4.39057
