14

O          2.42381        1.23764        0.23330
C          2.29455       -0.11817        0.25507
O          1.50091       -0.62827        1.02896
C          3.15655       -0.88768       -0.69826
Al         5.13522       -0.98083       -0.36863
S          5.72226        1.14009       -1.45789
O          4.66600        2.13497       -1.18970
O          7.08668        1.64062       -1.53951
F          5.37489        0.67424       -3.05299
I          5.97330       -0.69404        2.03541
H          3.17561        1.51728       -0.34867
H          3.09164       -0.45720       -1.71177
H          2.78766       -1.92180       -0.73889
H          5.93920       -2.09695       -1.18169
