71

N          4.13539       -6.79118       -1.25669
C          4.19107       -7.35205       -0.01066
O          3.91664       -8.53997        0.17979
C          4.58951       -6.39436        1.11980
C          5.08092       -4.99354        0.75790
In         5.69139       -3.62658        2.45795
C          4.62143       -1.68021        2.10311
C          3.71879       -1.52890        1.03270
C          3.08909       -0.31218        0.73950
C          3.33956        0.83289        1.50738
C          4.22910        0.70565        2.58483
C          4.84631       -0.51900        2.87069
C          2.69776        2.15865        1.17101
C          7.86929       -3.18523        2.05305
C          8.77443       -4.21667        1.72718
C         10.12619       -3.97509        1.46340
C         10.66096       -2.67008        1.51452
C          9.76267       -1.62693        1.81863
C          8.40932       -1.88380        2.07212
Si        12.49094       -2.38845        1.23477
C         12.96770       -2.55907       -0.61204
C         12.51160       -1.40548       -1.51459
C         12.97518       -1.57905       -2.95155
C         12.58405       -0.45485       -3.97806
C         13.02786        1.03931       -3.73456
C         14.55390        1.44864       -3.61531
C         15.51139        1.13733       -4.82475
C         16.91107        1.86060       -4.75171
F         17.52659        1.61162       -3.58100
F         17.68357        1.38669       -5.75081
F         16.79162        3.19022       -4.90782
F         15.75913       -0.19192       -4.87842
F         14.92485        1.52919       -5.98623
F         14.54635        2.80384       -3.44496
F         15.07004        0.88753       -2.49365
F         12.49690        1.76955       -4.75251
F         12.45574        1.46710       -2.57308
F         13.04354       -0.80657       -5.21424
F         11.22129       -0.40882       -4.03490
F         14.34596       -1.71564       -3.01826
F         12.44620       -2.72876       -3.49294
C         13.02499       -0.67369        1.83701
C         13.51381       -3.69829        2.14196
H          3.94443       -7.38606       -2.05268
H          4.46545       -5.84063       -1.38652
H          5.33721       -6.94637        1.71184
H          3.70531       -6.34358        1.77837
H          4.30197       -4.43858        0.20669
H          5.96826       -5.04549        0.10459
H          5.43616       -4.31913        4.06829
H          3.48767       -2.38775        0.39355
H          2.39042       -0.24851       -0.10222
H          4.44036        1.58045        3.20978
H          5.52503       -0.56004        3.72915
H          1.79935        2.02207        0.55210
H          3.38673        2.80974        0.60751
H          2.40546        2.70892        2.07789
H          8.42040       -5.25242        1.67903
H         10.77807       -4.82358        1.22499
H         10.12386       -0.59406        1.86967
H          7.75544       -1.03321        2.29115
H         12.55116       -3.51016       -0.97857
H         14.06436       -2.65507       -0.66323
H         12.90822       -0.44850       -1.14797
H         11.41480       -1.31678       -1.52710
H         12.48375        0.13775        1.32962
H         14.10082       -0.51693        1.66802
H         12.83424       -0.56883        2.91444
H         13.26550       -4.71132        1.79493
H         13.31742       -3.66232        3.22262
H         14.59099       -3.54182        1.98232
