45

C          1.50003       -0.60571       -0.03670
C          2.54604        0.46314       -0.36970
C          3.60252       -0.00787       -1.38077
C          4.64295        1.05997       -1.76086
Al         6.01942        0.42763       -3.04876
C          5.26933       -0.18624       -4.87830
C          4.18932        0.65617       -5.61236
C          4.57071        2.10900       -6.07718
C          5.68700        2.30325       -7.16436
F          5.45860        1.53656       -8.24803
F          5.66614        3.60290       -7.56385
F          6.90287        2.04105       -6.68166
F          3.43460        2.67284       -6.59153
F          4.94366        2.83927       -4.98677
F          3.69803        0.00138       -6.71416
F          3.13281        0.83377       -4.75087
F          6.22787       -0.48950       -5.83716
F          4.59842       -1.40443       -4.62576
C          7.91114        1.20175       -2.94246
C          8.69328        1.44771       -4.10770
C          9.26550        0.44966       -4.86326
C          9.25259       -0.92284       -4.37039
C          8.60113       -1.24501       -3.22710
C          7.74692       -0.29872       -2.46221
C          8.72997       -2.61885       -2.66309
F          9.47388       -3.47367       -3.42491
F          9.32430       -2.61625       -1.41396
F          7.51877       -3.23638       -2.47672
C          9.99366        0.73704       -6.11175
F          9.47405        0.09013       -7.21939
F         10.03008        2.06384       -6.43832
F         11.31930        0.32023       -6.08196
H          0.76272       -0.24571        0.69695
H          1.97207       -1.50851        0.38090
H          0.94917       -0.91448       -0.93852
H          3.05365        0.78895        0.55515
H          2.04472        1.36143       -0.77033
H          3.08369       -0.36346       -2.28763
H          4.11292       -0.89779       -0.97032
H          5.17312        1.40657       -0.85483
H          4.12999        1.94875       -2.16806
H          7.95696        1.97758       -2.16953
H          8.84946        2.48693       -4.40500
H          9.82292       -1.68085       -4.90490
H          7.85560       -0.41591       -1.37576
