27

Br         1.49343       -0.73597        0.25279
In         3.69438        0.63862       -0.33116
C          4.77989       -0.79268       -1.69232
C          5.86276       -1.58599       -1.28512
C          6.54473       -2.43418       -2.17642
C          6.14412       -2.53217       -3.50679
C          5.05124       -1.76660       -3.93094
C          4.39097       -0.91152       -3.04067
C          4.63689       -1.86634       -5.37128
F          5.59265       -1.36100       -6.22065
F          4.44364       -3.16409       -5.76999
F          3.48775       -1.20039       -5.64955
C          7.71150       -3.24009       -1.67826
F          8.63126       -2.46973       -1.02206
F          7.33648       -4.21239       -0.79053
F          8.38956       -3.87881       -2.67772
C          4.69654        0.84816        1.64803
C          6.22928        0.77365        1.68151
H          3.17280        2.04249       -1.26535
H          6.20472       -1.55204       -0.24825
H          6.67153       -3.18654       -4.19938
H          3.54785       -0.32565       -3.41255
H          4.25736        0.06191        2.28039
H          4.35358        1.80693        2.06786
H          6.59812       -0.22533        1.40386
H          6.64516        0.98989        2.68343
H          6.70130        1.48327        0.98352
