46

C          0.66941       -0.02411        0.49621
C          2.19827        0.04216        0.44250
C          2.72782        1.31151       -0.23183
C          4.25575        1.38486       -0.31021
C          4.77065        2.66751       -0.97000
C          6.30112        2.69398       -1.06870
C          6.94919        4.03073       -1.48799
C          6.42158        4.49345       -2.84392
F          6.31104        3.43925       -3.75793
F          5.16707        5.02686       -2.79152
F          7.20529        5.40888       -3.47535
C          6.68409        5.18710       -0.36240
O          6.34644        4.74793        0.76370
O          6.91578        6.35461       -0.74541
C          8.49428        3.89887       -1.52775
C          9.12451        2.93289       -2.54131
C         10.64975        2.86844       -2.40525
C         11.31983        1.95101       -3.43209
C         12.84107        1.85426       -3.28115
C         13.49681        0.94117       -4.32044
H          0.31512       -0.94085        0.99087
H          0.23672       -0.00184       -0.51598
H          0.25576        0.83431        1.04725
H          2.58684       -0.84216       -0.09185
H          2.60619       -0.01999        1.46593
H          2.35128        2.19596        0.31157
H          2.30691        1.38252       -1.25121
H          4.63234        0.50268       -0.86137
H          4.67653        1.31269        0.70842
H          4.44751        3.53601       -0.37694
H          4.31774        2.76336       -1.97022
H          6.62990        1.87927       -1.73735
H          6.70455        2.49358       -0.06463
H          8.79485        3.59647       -0.51025
H          8.90249        4.90899       -1.68376
H          8.86880        3.24179       -3.56752
H          8.71273        1.91714       -2.41554
H         10.91253        2.53043       -1.38666
H         11.06614        3.88705       -2.50134
H         11.07764        2.30647       -4.44959
H         10.88432        0.93831       -3.35612
H         13.08146        1.49202       -2.26694
H         13.27712        2.86546       -3.35115
H         13.09608       -0.08217       -4.25729
H         14.58672        0.88198       -4.18386
H         13.30734        1.30441       -5.34211
