37

O          5.50656        1.32365       -0.57933
C          4.37107        0.96811       -1.19682
O          3.64621        1.79212       -1.72889
C          4.06078       -0.52952       -1.19161
C          3.96417       -1.12302        0.23992
C          4.92139       -2.29473        0.54447
S          4.79834       -2.66686        2.37935
O          3.60155       -2.05187        2.92589
O          5.10121       -4.06570        2.61577
C          6.24878       -1.70809        3.21771
C          6.25506       -1.90690        4.77573
F          5.14866       -1.39851        5.34480
F          6.36321       -3.20328        5.11145
F          7.32741       -1.25001        5.28457
F          7.42856       -2.15820        2.74615
F          6.12264       -0.38371        2.98048
S          4.17181       -3.80572       -0.32543
O          2.91856       -4.11914        0.34391
O          4.16928       -3.49001       -1.74318
C          5.23396       -5.49634       -0.13506
C          5.58202       -6.09732       -1.54443
C          6.32466       -7.48700       -1.49221
F          5.59620       -8.41889       -0.84451
F          6.51948       -7.91803       -2.76041
F          7.52549       -7.38876       -0.89567
F          4.42238       -6.31309       -2.22906
F          6.37591       -5.26523       -2.24574
F          6.34104       -5.40375        0.60298
F          4.36979       -6.34342        0.47472
C          6.41913       -2.02894        0.02448
O          6.78358       -0.82766        0.15047
O          7.00346       -3.01047       -0.44204
H          6.00398        0.49503       -0.25582
H          4.84523       -1.03572       -1.77116
H          3.12042       -0.67802       -1.73200
H          2.93259       -1.42327        0.46490
H          4.21921       -0.34866        0.97680
