12

F          1.04297       -0.22556        0.17500
N          2.56757       -0.08434        0.10783
C          2.72532        1.19888       -0.49089
C          4.24175        1.34717       -0.55908
C          4.79399        2.61121       -1.14789
O          4.21258        3.57929       -1.59758
O          6.19925        2.63898       -1.16343
H          2.30686        2.06386        0.09115
H          2.30769        1.30870       -1.52807
H          4.63328        0.47142       -1.11849
H          4.63150        1.21377        0.47232
H          6.50224        1.80143       -0.77209
