21

F          7.15735       -2.03862        0.92465
S          6.25288       -1.42582       -0.29886
O          7.04366       -0.32725       -0.80111
O          6.01138       -2.57660       -1.13769
N          4.90430       -1.07733        0.49160
S          4.41450        0.37677        0.91919
O          4.83462        1.48953        0.08779
O          3.01678        0.26564        1.29878
C          5.30063        0.67017        2.58186
C          5.15247        2.07216        3.27460
C          3.73770        2.63942        3.68129
C          2.84155        1.82102        4.67943
F          3.51832        1.53027        5.81166
F          1.78021        2.59669        5.02012
F          2.37627        0.69113        4.14528
F          3.99061        3.83343        4.30980
F          3.00682        2.89709        2.57635
F          5.89317        2.02462        4.43166
F          5.70646        3.01766        2.47357
F          4.89949       -0.27557        3.48208
F          6.63952        0.51540        2.38395
