40

S          1.50124        1.65611        0.99585
C          3.02337        0.80107        0.37370
C          3.53642       -0.18789        1.42297
C          4.79902       -0.93589        0.97591
Al         5.51262       -2.19571        2.41609
C          4.17711       -3.71693        2.73121
C          3.90217       -4.68697        1.57760
C          2.83191       -5.74442        1.92850
C          2.59576       -6.78719        0.85831
C          1.48568       -7.83128        1.18928
F          1.77293       -8.49644        2.33504
F          0.28536       -7.22469        1.35224
F          1.35162       -8.74992        0.20434
F          2.22503       -6.21662       -0.34133
F          3.73804       -7.52357        0.61111
C          7.39761       -2.92856        2.07097
C          7.77418       -3.68502        0.79614
S          7.63471       -2.59319       -0.67279
C          8.37250       -3.67245       -1.92974
H          1.27907        2.43595       -0.08903
H          3.78742        1.56116        0.15928
H          2.77268        0.27775       -0.55940
H          2.72721       -0.90352        1.65386
H          3.73287        0.35851        2.36187
H          5.58884       -0.20367        0.72350
H          4.59586       -1.48678        0.03924
H          5.61754       -1.35452        3.83487
H          3.22353       -3.24974        3.04683
H          4.52089       -4.29143        3.61341
H          4.82854       -5.21017        1.29021
H          3.57138       -4.13774        0.68150
H          1.87092       -5.24824        2.13504
H          3.12341       -6.27646        2.84730
H          7.56537       -3.61972        2.91980
H          8.12109       -2.10732        2.22426
H          7.11146       -4.55137        0.63157
H          8.81565       -4.06116        0.79574
H          8.39820       -3.10820       -2.87153
H          7.77586       -4.58369       -2.08229
H          9.40148       -3.95507       -1.65990
