23

O          3.65730       -0.79688        1.58321
Nb         4.37891        0.50851        0.39632
S          4.54382       -0.27167       -1.93169
O          4.83863        1.18408       -2.14310
O          5.41312       -1.26862       -2.57786
C          2.95132       -0.44915       -3.07676
C          2.31847       -1.87533       -3.05056
C          0.84261       -1.96088       -3.59932
C          0.34985       -3.41111       -3.95474
F          0.95095       -3.88306       -5.06214
F          0.57410       -4.26783       -2.93930
F         -0.98431       -3.37906       -4.19051
F         -0.01888       -1.46833       -2.67151
F          0.72687       -1.22232       -4.73837
F          3.07990       -2.72953       -3.78785
F          2.29269       -2.32245       -1.76090
F          1.99809        0.45745       -2.73135
F          3.35347       -0.16975       -4.34792
I          5.97177        2.01736        2.14057
H          2.81069       -0.70007        2.04582
H          2.82858        0.66620       -0.41791
H          3.73041        2.12961        0.30947
H          5.95497        0.03249       -0.23551
