26

N          1.80990       -0.28465       -1.01503
C          2.94102       -0.26143       -0.06618
In         3.45444        1.79554        0.68930
S          2.03244        3.20245       -1.10915
O          2.22734        4.67974       -1.13364
O          2.16793        2.51346       -2.43489
C          0.26048        2.97600       -0.69163
C          5.57325        2.21630        0.10809
C          5.78986        2.20966       -1.40562
C          7.23921        2.03924       -1.88685
S          8.43643        3.33144       -1.36046
H          1.76791       -1.17715       -1.51453
H          1.92872        0.44331       -1.72719
H          3.88348       -0.67080       -0.48746
H          2.68945       -0.88441        0.80815
H          2.86214        2.32028        2.26967
H          0.06080        3.45574        0.27444
H          0.05629        1.89801       -0.65492
H         -0.30476        3.46429       -1.49781
H          6.15657        1.40105        0.57427
H          5.93307        3.15426        0.55282
H          5.36734        3.12396       -1.85433
H          5.22890        1.38071       -1.87529
H          7.28543        1.96045       -2.98354
H          7.67296        1.11610       -1.47022
H          7.76985        4.38339       -1.89368
