29

C          1.12997        0.80551        0.97784
Nb         3.23454        0.76848        0.24716
S          4.50244        0.73665       -1.85655
O          4.47239        1.79966       -2.87501
O          5.82183        0.34579       -1.27719
C          4.17163       -0.79325       -3.04425
C          4.34591       -2.21144       -2.43872
F          5.63525       -2.48803       -2.16998
F          3.63426       -2.34464       -1.29367
F          3.89835       -3.17181       -3.30118
F          2.90097       -0.71053       -3.53918
F          5.03581       -0.70338       -4.09939
C          4.14662       -0.55162        1.72754
C          5.59473       -0.19088        1.99792
S          6.26238       -1.12417        3.44427
C          7.96258       -0.48566        3.46956
H          0.67767       -0.19991        0.91723
H          0.49710        1.48708        0.38849
H          1.10291        1.15773        2.02392
H          4.19330        2.18354       -0.21404
H          2.88585        2.35023        0.91379
H          2.16025        0.08265       -0.96938
H          4.03104       -1.60316        1.41334
H          3.51287       -0.39021        2.62140
H          5.70946        0.88082        2.23081
H          6.22457       -0.41372        1.12623
H          8.48898       -0.98662        4.29265
H          7.97910        0.59924        3.64636
H          8.48191       -0.70884        2.52738
