48

C          2.78994        1.66080       -3.76357
S          2.11502        2.58816       -2.35331
O          2.50977        4.00353       -2.57540
O          0.67091        2.28062       -2.32889
Al         3.31037        2.04433       -0.37907
S          2.87620       -0.35121       -0.22934
O          1.51166       -0.73028        0.16298
O          3.45587       -0.97288       -1.44090
C          3.99571       -1.16987        1.16358
C          3.57997       -0.87889        2.62699
F          2.40716       -1.45548        2.93718
F          4.51429       -1.34743        3.50166
F          3.47419        0.45617        2.81950
F          3.98043       -2.51408        0.96789
F          5.27525       -0.72123        0.99910
C          5.25839        2.27402       -0.72320
C          5.89880        3.42627       -0.22112
C          7.24481        3.69518       -0.47246
C          7.99803        2.79915       -1.24515
C          7.39142        1.64272       -1.75452
C          6.04315        1.39235       -1.49325
C          9.44148        3.10043       -1.54034
C         10.48318        2.87607       -0.37691
C         10.64602        1.45002        0.27460
C         11.18281        0.21321       -0.55995
C         12.58109        0.33776       -1.27312
C         13.21462       -1.04331       -1.69505
F         12.33505       -1.79456       -2.38199
F         14.27953       -0.79906       -2.48824
F         13.64153       -1.73638       -0.62509
F         12.44512        1.07346       -2.40202
F         13.47697        0.94486       -0.45112
F         11.27561       -0.80919        0.34110
F         10.25945       -0.12912       -1.48957
F         11.50027        1.60890        1.32744
F          9.44248        1.06190        0.76559
F         11.71954        3.26382       -0.81127
F         10.13213        3.69910        0.65325
F          9.90290        2.38151       -2.61771
F          9.60135        4.43605       -1.86068
H          2.24003        2.02224       -4.64266
H          2.61621        0.59127       -3.59660
H          3.86028        1.88090       -3.85455
H          2.64779        2.81197        0.85053
H          5.33218        4.14492        0.37737
H          7.70608        4.60375       -0.08389
H          7.96879        0.94550       -2.36130
H          5.59434        0.48115       -1.89638
