32

N          0.58153        0.63238        0.16646
C          2.00636        0.77434        0.53664
C          2.81098        1.44837       -0.57122
C          4.29157        1.63531       -0.21471
C          5.14456        2.30007       -1.30384
B          6.71610        2.56248       -0.89494
C          7.57755        1.14796       -0.84375
F          6.85566       -0.01288       -1.13815
F          8.66001        1.07047       -1.72402
F          8.15345        0.85987        0.39149
C          7.46929        3.62360       -1.90937
C          6.88769        5.05105       -1.92325
C          6.97023        5.71967       -0.55350
S          6.23977        7.40290       -0.46255
H          0.08893        0.08385        0.87409
H          0.51717        0.09404       -0.70072
H          2.48809       -0.19229        0.78713
H          2.05217        1.39383        1.44809
H          2.35083        2.42322       -0.80700
H          2.73332        0.83975       -1.49237
H          4.72321        0.65271        0.04104
H          4.36240        2.24158        0.70677
H          4.67207        3.27050       -1.55259
H          5.07218        1.69651       -2.23061
H          6.75309        2.98810        0.26638
H          7.44132        3.24385       -2.94872
H          8.54481        3.69347       -1.66105
H          5.83229        5.03598       -2.24177
H          7.41773        5.69060       -2.65593
H          8.00957        5.76855       -0.19835
H          6.40625        5.13794        0.18821
H          6.97388        7.95389       -1.45965
