16

C          1.21105       -0.23558        0.44799
C          2.42053        0.42979       -0.23902
C          3.09510       -0.42196       -1.29856
C          2.78418       -0.12899       -2.66547
F          3.33524        1.10266       -3.23037
F          3.16382       -1.05844       -3.60064
F          1.41872        0.09916       -2.87300
C          4.31664       -1.07438       -0.93235
F          5.51360       -0.24239       -0.81196
F          4.26901       -1.62391        0.35265
F          4.75922       -2.07613       -1.76031
H          0.75887        0.42660        1.20934
H          1.51663       -1.16935        0.94117
H          0.43893       -0.48745       -0.29282
H          3.15441        0.70868        0.53655
H          2.09064        1.38519       -0.68278
