24

O          1.80861       -0.00462        0.77049
C          2.35821       -0.89534       -0.07730
O          2.33899       -2.08297        0.19814
C          3.08799       -0.36889       -1.29171
C          4.35283       -0.96610       -1.45963
C          5.20196       -0.58877       -2.49446
C          4.77133        0.38213       -3.40175
C          3.50302        0.94163       -3.26067
C          2.61600        0.60468       -2.21212
B          1.17569        1.34063       -2.30223
S          1.24303        3.06916       -1.42440
O          2.35957        3.87480       -1.88582
O         -0.03976        3.71237       -1.21307
F          1.73719        2.65195        0.18044
C         -0.20980        0.54907       -1.94429
F         -0.13805       -0.76530       -2.36661
F         -0.59628        0.48917       -0.63005
F         -1.29703        1.07664       -2.60699
H          1.87558        0.92224        0.44271
H          4.64996       -1.73900       -0.74959
H          6.18546       -1.05260       -2.59431
H          5.41480        0.69395       -4.22746
H          3.16776        1.67841       -3.99238
H          1.02039        1.76492       -3.43141
