33

N          4.77616        2.44504        0.33795
C          4.24126        1.07639        0.21135
C          4.93870        0.12114        1.17820
C          4.38892       -1.30318        1.02497
C          5.01248       -2.45938        1.83556
S          4.76631       -2.29885        3.67423
O          5.25971       -3.48906        4.34972
O          5.27925       -0.99241        4.10001
C          2.86831       -2.21465        4.16889
C          2.66621       -1.25460        5.40013
C          1.24367       -1.33241        6.07314
F          0.25598       -1.13309        5.17754
F          1.03566       -2.51117        6.68732
F          1.15255       -0.35832        7.01438
F          3.56047       -1.55109        6.38127
F          2.82610        0.03999        5.01807
F          2.09424       -1.73267        3.16317
F          2.43387       -3.43261        4.54265
C          4.28996       -3.79445        1.34618
O          3.26063       -4.08818        2.00051
O          4.80852       -4.32053        0.33712
C          6.53745       -2.53428        1.69613
H          4.35340        3.05374       -0.36437
H          5.77898        2.43533        0.13945
H          4.32051        0.66873       -0.81766
H          3.16570        1.11608        0.45115
H          4.81764        0.48716        2.20623
H          6.02216        0.13408        0.96603
H          4.52760       -1.62743       -0.02140
H          3.30294       -1.30177        1.19349
H          7.04297       -1.59929        1.97360
H          6.72342       -2.77361        0.64009
H          6.94578       -3.35683        2.29612
