28

O          3.70341        0.40521        1.26476
C          5.06923        0.36577        1.32895
O          5.63812        0.84243        2.29056
C          5.76723       -0.29657        0.14901
C          4.89346       -0.84892       -0.97966
B          5.72700       -1.55119       -2.21377
C          4.70225       -2.05476       -3.37785
C          4.36769       -3.42677       -3.43020
C          3.45227       -3.95938       -4.33758
C          2.80904       -3.12039       -5.25226
C          3.09576       -1.76058       -5.22845
C          4.02456       -1.22225       -4.31597
C          4.20275        0.27325       -4.44933
O          3.43095        0.97340       -5.09075
O          5.26832        0.84140       -3.85141
S          6.79463       -3.08222       -1.58357
H          3.45532       -0.01823        0.41609
H          6.38898       -1.10143        0.57442
H          6.48278        0.44772       -0.23866
H          4.27398       -0.03546       -1.40572
H          4.20355       -1.61596       -0.57888
H          6.59182       -0.76564       -2.63710
H          4.85456       -4.10871       -2.72869
H          3.24458       -5.03258       -4.33193
H          2.09445       -3.52213       -5.97388
H          2.60878       -1.06801       -5.91622
H          5.79943        0.14174       -3.36286
H          7.76704       -2.35885       -0.98598
