43

C          4.77333        1.21719       -0.41046
C          4.53697       -0.28560       -0.59942
C          3.07714       -0.65661       -0.91059
Al         2.37762        0.03468       -2.70860
C          3.60868       -0.51071       -4.26074
O          3.84391       -1.99199       -4.34792
C          4.59861       -2.42180       -5.33787
F          5.87773       -1.90403       -5.35762
F          4.73311       -3.77632       -5.24834
F          4.09553       -2.16448       -6.59889
C          0.46249       -0.57142       -3.03286
C         -0.55473        0.15137       -2.14012
C         -2.02686       -0.17656       -2.43323
C         -3.00833        0.59058       -1.54834
N         -4.38876        0.25358       -1.88164
C         -5.46391        0.80499       -1.21536
N         -5.45839        1.74147       -0.32562
N         -6.69288        0.23042       -1.59624
C          2.87874       -2.17666       -0.78342
H          5.83163        1.44199       -0.20182
H          4.17629        1.60240        0.43211
H          4.46773        1.78170       -1.30319
H          4.88166       -0.81429        0.31732
H          5.19518       -0.65523       -1.40780
H          2.45144       -0.17529       -0.12951
H          2.40921        1.68384       -2.82154
H          4.60402       -0.04239       -4.18152
H          3.18245       -0.20230       -5.23098
H          0.35275       -1.66492       -2.90693
H          0.21610       -0.36812       -4.09290
H         -0.41589        1.24394       -2.23708
H         -0.35106       -0.07690       -1.07732
H         -2.18844       -1.26258       -2.30146
H         -2.24463        0.04600       -3.49171
H         -2.86829        1.67488       -1.69332
H         -2.79437        0.37769       -0.48236
H         -4.52665       -0.69432       -2.22107
H         -4.50063        1.97603       -0.05192
H         -6.78988        0.11157       -2.60248
H         -7.46011        0.77608       -1.21158
H          3.45745       -2.72426       -1.54559
H          1.82480       -2.46734       -0.91687
H          3.20451       -2.56476        0.20469
