41

C          3.05030       -0.13593       -0.15101
C          1.55990        0.00641        0.03278
C          0.75862       -1.07745        0.43688
C         -0.61468       -0.96569        0.61124
C         -1.30542        0.26277        0.39607
C         -0.48176        1.34930       -0.01080
C          0.89768        1.21869       -0.18471
C         -2.73879        0.45956        0.55787
S         -3.80644       -0.73569        1.04289
O         -5.19638       -0.34691        0.77809
O         -3.37423       -2.10335        0.75296
C         -3.81162       -0.75906        2.98117
C         -4.87207       -1.63538        3.70351
F         -6.12471       -1.19349        3.47742
F         -4.79502       -2.92546        3.32082
F         -4.67800       -1.60756        5.06112
F         -2.58313       -1.17401        3.42236
F         -3.99623        0.52669        3.43248
C         -3.36067        1.82920        0.38596
C         -3.66141        2.19141       -1.08394
C         -4.28452        3.58949       -1.19298
C         -4.51396        4.04561       -2.61696
C         -5.18348        5.44814       -2.75122
F         -4.43128        6.40034       -2.14719
F         -5.33710        5.80368       -4.04616
F         -6.40712        5.45555       -2.17138
F         -3.32791        4.12729       -3.31641
F         -5.32555        3.17342       -3.30708
H          3.30226       -0.93804       -0.86400
H          3.56164       -0.38052        0.79539
H          3.49236        0.79613       -0.53206
H          1.22819       -2.04903        0.62147
H         -1.18189       -1.84248        0.91491
H         -0.92664        2.32558       -0.20400
H          1.47269        2.09387       -0.50419
H         -2.70017        2.60180        0.82271
H         -4.30429        1.88019        0.94666
H         -4.35269        1.44042       -1.48970
H         -2.73893        2.14218       -1.68051
H         -3.63797        4.33975       -0.71034
H         -5.25460        3.61499       -0.67208
