69

C          2.85987        4.87683       -0.46710
C          3.04772        3.60367       -1.27258
As         3.18698        1.98358        0.04378
C          2.78857        0.53802       -1.41767
C          3.53274       -0.64473       -1.46534
C          3.15172       -1.71304       -2.28667
C          1.99768       -1.63539       -3.08158
C          1.24754       -0.45049       -3.03356
C          1.64060        0.61369       -2.21326
C          1.54929       -2.80443       -3.92722
C          5.30587        1.83437       -0.14574
C          5.99011        1.75875        1.07154
C          7.38598        1.76213        1.13597
C          8.16260        1.84409       -0.04045
C          7.47128        1.90404       -1.26969
C          6.07092        1.89682       -1.31715
Si        10.03131        1.88363       -0.00476
C         10.71809        0.43234       -1.04111
C         10.22369       -0.93644       -0.55419
C         10.74386       -2.08533       -1.39860
C         10.43238       -3.54046       -0.89092
C          8.94676       -3.99434       -0.62879
C          7.86763       -4.00450       -1.78745
C          8.14787       -4.89291       -3.05634
C          6.88649       -5.13758       -3.96922
F          6.29433       -3.98036       -4.30035
F          7.29983       -5.75036       -5.10124
F          5.99106       -5.93734       -3.36525
F          9.08744       -4.29365       -3.82669
F          8.60444       -6.11663       -2.67527
F          6.72727       -4.47372       -1.20527
F          7.65235       -2.73022       -2.18827
F          9.01540       -5.25879       -0.12517
F          8.42882       -3.18905        0.33912
F         10.98706       -4.43881       -1.75467
F         11.05915       -3.68574        0.31798
F         10.29579       -1.99618       -2.69440
F         12.12467       -2.05100       -1.46592
C         10.71303        3.47327       -0.77540
C         10.69417        1.72850        1.76355
H          2.64568        5.75987       -1.09504
H          3.75465        5.10365        0.13384
H          2.02187        4.76467        0.24336
H          3.94779        3.64104       -1.90223
H          2.17763        3.39785       -1.91157
H          1.59054        2.10638        0.29306
H          3.48504        3.00263        1.26687
H          3.31207        0.76015        1.09122
H          4.42026       -0.74244       -0.83058
H          3.75134       -2.63012       -2.30565
H          0.33881       -0.36660       -3.63992
H          1.01562        1.51225       -2.17214
H          2.39100       -3.46754       -4.17369
H          1.09253       -2.46828       -4.87013
H          0.79491       -3.41569       -3.40365
H          5.39937        1.70466        1.99631
H          7.87956        1.70782        2.11236
H          8.03369        1.96309       -2.20957
H          5.57344        1.93672       -2.29185
H         11.81867        0.46894       -1.03109
H         10.40520        0.58835       -2.08583
H          9.12469       -0.96904       -0.56930
H         10.53624       -1.12637        0.48361
H         10.34273        3.60010       -1.80271
H         11.81292        3.47389       -0.80580
H         10.38552        4.34916       -0.19735
H         10.35215        0.80717        2.25626
H         10.35981        2.57357        2.38220
H         11.79427        1.72597        1.76669
