45

N          0.63050        0.30480        0.85941
C          2.05860        0.21033        0.50395
C          2.86345       -0.42033        1.63730
C          4.35310       -0.55066        1.30367
C          5.12120       -1.20474        2.46483
C          6.68149       -1.20988        2.49290
C          7.18405       -1.91737        1.19082
C          8.71281       -2.25339        0.87110
C          9.62502       -3.15010        1.79819
C          9.39524       -4.71167        1.78860
F          9.76276       -5.23312        0.59150
F         10.20550       -5.25304        2.73170
F          8.14204       -5.07545        2.04183
F         10.90795       -2.99093        1.32563
F          9.60041       -2.70692        3.06719
F          8.70679       -2.88444       -0.35015
F          9.38374       -1.08255        0.70696
F          6.51689       -3.09976        1.03865
F          6.84919       -1.17175        0.06025
C          7.30314        0.19971        2.66316
C          6.69341        1.26880        3.69092
C          6.44704        1.12578        5.24838
C          7.72368        1.00379        6.20723
F          8.86490        0.75581        5.56191
F          7.90019        2.19122        6.86173
F          7.51284        0.07201        7.14667
F          5.84566        2.32539        5.58746
F          5.53124        0.18069        5.53415
F          7.51469        2.36498        3.58447
F          5.46696        1.63840        3.19446
F          8.64008        0.12721        2.91747
F          7.20886        0.93232        1.47403
C          7.01838       -2.10243        3.84149
O          6.73108       -3.30580        3.75560
O          7.46272       -1.42262        4.78916
H          0.11394        0.78240        0.11893
H          0.52860        0.88514        1.69513
H          2.51340        1.18789        0.24486
H          2.13740       -0.42247       -0.39565
H          2.43370       -1.40779        1.87416
H          2.74633        0.19585        2.54748
H          4.76229        0.44198        1.07004
H          4.46420       -1.15453        0.39132
H          4.83292       -2.26145        2.54683
H          4.79817       -0.74362        3.40819
