15

O          2.12662       -0.24705       -0.69228
C          2.21768       -0.23266        0.62384
O          1.60012       -1.01648        1.34665
C          3.14172        0.83309        1.23307
C          4.54082        0.99593        0.58388
C          4.51442        1.82199       -0.74608
O          5.39024        2.69068       -0.91676
O          3.58166        1.52197       -1.58044
N          5.46924        1.63707        1.52957
H          2.77385        0.55061       -1.11832
H          3.27661        0.57398        2.29014
H          2.61942        1.80505        1.20619
H          4.89314       -0.01439        0.29408
H          5.99961        2.30724        0.95511
H          6.13105        0.95368        1.89636
