24

N          2.76460        1.09347       -1.08222
Nb         4.22920        0.65929        0.15673
C          5.10560       -1.16982       -0.88761
C          5.53837       -1.22465       -2.39137
C          6.74021       -0.33565       -2.86632
F          7.80223       -0.42736       -2.04372
F          7.14590       -0.75881       -4.09996
F          6.39923        0.95966       -2.99773
F          5.88814       -2.51574       -2.73519
F          4.47788       -0.87792       -3.18906
F          6.16161       -1.77537       -0.20405
F          4.05651       -2.13841       -0.89090
C          3.39231        1.08162        2.26269
C          2.74556        2.41019        2.41722
O          1.58590        2.61178        2.75401
O          3.54611        3.49545        2.12751
H          1.99314        0.48736       -1.35858
H          2.62036        2.03800       -1.43956
H          5.09722        2.11166        0.75048
H          4.20985       -0.79661        1.13440
H          5.78817        1.07373       -0.57229
H          4.30930        1.02593        2.87281
H          2.69383        0.30365        2.59168
H          4.33349        3.10331        1.66016
