61

C          6.61869       -5.63929       -8.42630
O          5.88240       -5.10008       -7.34387
C          6.22078       -3.73991       -7.09204
C          5.51401       -3.24995       -5.84475
O          6.11276       -3.82466       -4.70055
C          5.57844       -3.31147       -3.46721
C          6.39849       -3.86662       -2.32798
Nb         8.57858       -3.96335       -2.46369
S         10.21697       -2.29900       -1.66151
O          9.79941       -1.52315       -0.47456
O         11.52389       -2.99432       -1.60691
C         10.69369       -0.83317       -2.89378
C          9.78895        0.43432       -2.89000
F          8.49577        0.13593       -3.12779
F          9.86804        1.10444       -1.72616
F         10.18814        1.29629       -3.87698
F         11.94002       -0.41431       -2.52171
F         10.77317       -1.27496       -4.18030
C          9.27330       -5.57907       -3.74248
C          8.52180       -6.22382       -4.75038
C          9.00722       -7.35049       -5.41551
C         10.26741       -7.87562       -5.08658
C         11.03373       -7.25527       -4.08651
C         10.54008       -6.12695       -3.43168
C         10.77069       -9.09764       -5.79527
C         11.35760       -8.90676       -7.24817
C         12.62825       -8.00206       -7.47691
C         14.04822       -8.39961       -6.89167
C         14.64831       -9.80692       -7.26531
C         16.20137       -9.93082       -7.02149
F         16.53773       -9.52301       -5.78457
F         16.55138      -11.22864       -7.15331
F         16.89952       -9.21762       -7.92264
F         14.05090      -10.76358       -6.51532
F         14.43851      -10.07624       -8.58098
F         14.90714       -7.45219       -7.37406
F         14.02216       -8.29251       -5.54242
F         12.78496       -7.90327       -8.83046
F         12.37070       -6.76189       -6.99336
F         11.64270      -10.13454       -7.78031
F         10.37835       -8.34604       -8.01633
F         11.74208       -9.75183       -5.07027
F          9.74449      -10.00816       -5.98726
H          6.30523       -6.68474       -8.54349
H          7.70742       -5.60961       -8.23485
H          6.41467       -5.09596       -9.37029
H          5.91810       -3.10796       -7.95286
H          7.31398       -3.63323       -6.95676
H          4.43523       -3.50540       -5.89961
H          5.59713       -2.14393       -5.80847
H          4.49958       -3.57927       -3.41721
H          5.65236       -2.20719       -3.47285
H          6.12595       -4.92465       -2.11216
H          6.22304       -3.28601       -1.40439
H          9.19510       -4.19259       -0.80089
H          8.13499       -2.39002       -3.05849
H          9.54207       -3.34196       -3.76540
H          7.53594       -5.84066       -5.02436
H          8.39922       -7.83479       -6.18138
H         12.01213       -7.65671       -3.82095
H         11.16674       -5.65046       -2.67090
