23

N          1.75547        0.51353        0.30541
C          2.92794       -0.31262       -0.05231
C          3.00408       -0.49928       -1.56916
N          4.03883       -1.46548       -1.89529
S          4.83109       -1.34118       -3.21646
O          5.08815       -2.64288       -3.83260
O          4.48532       -0.22442       -4.11144
C          6.66462       -0.94328       -2.72457
C          7.13061        0.52426       -2.42857
C          6.42032        1.33863       -1.29724
F          6.37975        0.65485       -0.13594
F          7.12704        2.48255       -1.07082
F          5.17697        1.69886       -1.63956
F          8.46047        0.47514       -2.05610
F          7.05831        1.27527       -3.55967
F          7.00757       -1.69500       -1.62851
F          7.49303       -1.33799       -3.75065
H          1.65781        0.56024        1.32069
H          0.90873        0.05409       -0.03925
H          2.92746       -1.31787        0.41119
H          3.83176        0.20301        0.30283
H          3.12921        0.47861       -2.06378
H          2.01255       -0.88103       -1.90229
