15

F          0.95721       -0.05258        0.24196
C          2.35220       -0.34258        0.07598
C          2.87978       -0.53239        1.53463
F          2.34768       -1.63343        2.12285
F          4.22940       -0.66888        1.56711
F          2.57121        0.52841        2.33131
N          2.66793       -1.39133       -0.69012
C          2.36026       -1.49690       -1.98656
C          2.86577       -2.85275       -2.57636
F          2.30669       -3.91599       -1.94551
F          2.56564       -2.97656       -3.89942
F          4.21203       -2.97869       -2.46509
F          0.97003       -1.45759       -2.33385
F          2.90474       -0.50589       -2.86893
F          2.86554        0.93515       -0.32180
