12

C          1.11449       -0.10089        0.02155
N          2.52625        0.11572       -0.23494
S          2.91786        1.08240       -1.37910
O          2.67747        0.64145       -2.76824
O          2.67557        2.52541       -1.17688
C          4.78624        0.91749       -1.18252
F          5.23670        1.31353        0.03750
F          5.23796       -0.34902       -1.38299
F          5.41278        1.70558       -2.10440
H          1.02652       -0.80900        0.86142
H          0.56605       -0.54703       -0.83479
H          0.56543        0.81827        0.31599
