28

C          4.06848       -0.32020        4.49898
S          4.95866       -0.26674        2.91885
C          3.75137       -1.12566        1.84191
C          4.38399       -1.46877        0.49209
In         5.87954       -3.12927        0.49785
S          4.05646       -5.01471        1.34143
O          3.48229       -4.57847        2.62564
O          3.12842       -5.65280        0.40151
F          5.06713       -6.32840        1.82322
C          7.16721       -3.39200        2.29031
C          8.29343       -2.37080        2.44784
C          9.19434       -2.47732        3.68342
O         10.24654       -1.84281        3.79662
N          8.74140       -3.30482        4.67064
H          4.71134        0.15662        5.25044
H          3.87294       -1.35797        4.80114
H          3.11895        0.23177        4.44470
H          2.87888       -0.45614        1.73369
H          3.42175       -2.03429        2.36836
H          4.83618       -0.57272        0.03575
H          3.58909       -1.79488       -0.19699
H          6.45754       -3.67035       -1.07517
H          7.55329       -4.42134        2.25169
H          6.44991       -3.32651        3.12340
H          7.88074       -1.34758        2.48635
H          8.98484       -2.37974        1.59042
H          7.90494       -3.85950        4.52828
H          9.30365       -3.42450        5.50326
