47

C          1.61416        0.18369       -0.67435
C          3.05770        0.45055       -0.23973
C          3.28282        1.24638        1.07232
C          2.66140        0.73115        2.41810
S          3.07137       -1.18245        2.70243
O          2.60889       -1.71042        3.97772
O          2.86428       -1.92991        1.47415
C          5.01802       -1.33284        2.90388
C          5.53969       -2.57129        3.72484
C          5.20823       -4.04585        3.26659
C          5.69252       -4.53347        1.85153
F          7.00711       -4.29091        1.66924
F          5.50378       -5.87397        1.78572
F          4.99961       -3.96649        0.85983
F          5.83605       -4.85547        4.17621
F          3.88040       -4.27256        3.34304
F          6.91004       -2.47294        3.73631
F          5.11814       -2.46691        5.00864
F          5.60319       -1.40740        1.67447
F          5.51711       -0.24151        3.54426
C          2.99002        1.62619        3.63388
C          3.16498        1.06182        4.91425
C          3.44677        1.82336        6.04643
C          3.57667        3.20635        5.94483
C          3.38508        3.79716        4.70157
C          3.06364        3.04953        3.55297
C          2.79873        3.96884        2.36593
O          3.61459        4.83311        2.06579
O          1.61774        3.87509        1.77249
C          1.06233        0.61970        2.34359
O          0.45410        1.72337        2.18905
O          0.57473       -0.51012        2.46380
C          4.77036        1.64838        1.14441
H          1.60522       -0.22239       -1.69705
H          1.01566        1.10618       -0.67349
H          1.11546       -0.54269       -0.02296
H          3.54469        1.06827       -1.01383
H          3.61715       -0.49377       -0.20991
H          2.71205        2.17135        0.91738
H          3.06990       -0.01191        5.03901
H          3.57018        1.31915        7.00671
H          3.81446        3.81881        6.81646
H          3.47691        4.87715        4.58181
H          1.11644        2.96725        2.02485
H          5.43019        0.79135        0.96631
H          5.04700        2.10798        2.09940
H          4.97361        2.38889        0.35859
