47

C          6.97436        4.30903       -8.29278
O          6.37315        3.36333       -7.43528
C          7.03498        3.28667       -6.17000
C          6.43498        2.13110       -5.38146
O          6.93774        2.22008       -4.05865
C          6.52563        1.11787       -3.22553
C          6.89006       -0.27695       -3.71434
Nb         8.86738       -1.12774       -4.40345
C          9.78609       -0.25857       -2.43797
C          9.76478        1.04263       -1.88826
C         10.52651        1.40456       -0.77333
C         11.36388        0.47089       -0.14030
C         11.42417       -0.82401       -0.64035
C         10.64427       -1.17412       -1.76469
C         10.67194       -2.53398       -2.33353
O         10.03177       -2.86447       -3.33920
O         11.41586       -3.50296       -1.73913
C         10.65352       -0.85267       -5.66550
C         11.04091        0.36747       -6.49332
C         11.43114        1.52812       -5.58063
S         11.73437        3.12842       -6.42100
H          6.42083        4.28869       -9.24226
H          8.03692        4.06875       -8.48862
H          6.92577        5.33514       -7.87390
H          6.90461        4.23736       -5.61384
H          8.11865        3.11960       -6.31346
H          6.72471        1.17401       -5.84772
H          5.32596        2.21516       -5.38770
H          5.42410        1.21806       -3.07830
H          6.99870        1.32727       -2.25409
H          6.15312       -0.63849       -4.44456
H          6.79918       -0.96592       -2.83982
H          8.93731        0.58601       -4.65897
H          8.23094       -0.46904       -5.92485
H          7.69334       -2.34969       -5.14267
H          9.14969        1.80252       -2.37523
H         10.48789        2.42945       -0.39324
H         11.96845        0.75807        0.72186
H         12.09951       -1.53578       -0.14357
H         11.85104       -3.11101       -0.96045
H         10.37263       -1.70578       -6.33049
H         11.52224       -1.21328       -5.07228
H         10.17972        0.67329       -7.10610
H         11.88238        0.16847       -7.19003
H         12.31208        1.28044       -4.96998
H         10.59276        1.72864       -4.89581
H         12.71602        2.70240       -7.25327
