22

C          2.10226       -1.17969        0.79070
C          2.32464        0.18380        0.16167
Nb         3.21819       -0.88921       -1.52393
C          2.64381       -0.76904       -3.73019
F          1.24658       -0.57216       -3.74558
F          3.10510        0.22155       -4.59082
F          2.83583       -1.93010       -4.48886
C          5.21872       -0.41381       -2.42766
C          6.11352       -1.60031       -2.79485
H          1.04367       -1.41647        0.97187
H          2.68396       -1.35896        1.70360
H          2.42347       -2.03588        0.10125
H          3.03418        0.83077        0.69134
H          1.40670        0.73786       -0.06258
H          4.56329       -1.66153       -0.55654
H          2.20738       -2.31514       -1.99430
H          3.07016        0.78390       -2.06903
H          5.68079        0.17652       -1.61155
H          5.10435        0.25323       -3.29236
H          6.31220       -2.23980       -1.92026
H          7.09015       -1.28543       -3.21328
H          5.63875       -2.23650       -3.56001
