29

I          1.01824        0.88615        0.56230
Ga         3.39662        0.09009       -0.37697
C          4.16073       -1.54252        0.74072
C          4.94325       -1.45649        2.08355
C          4.07691       -1.24005        3.37210
C          4.87523       -0.76108        4.64086
F          5.94379       -1.54905        4.88807
F          5.29952        0.50912        4.51676
F          4.05997       -0.81988        5.72253
F          3.11511       -0.31193        3.14811
F          3.47848       -2.41543        3.71727
F          5.67793       -2.60060        2.31013
F          5.84515       -0.42380        1.99817
F          3.22376       -2.55804        0.92139
F          5.12156       -2.07839       -0.13948
C          4.67634        1.64780       -0.53367
C          4.34743        2.97851        0.15888
C          4.47246        2.87867        1.68342
C          5.22886        4.12122       -0.37341
H          3.03884       -0.65374       -1.72932
H          4.74818        1.81210       -1.62264
H          5.67159        1.29552       -0.20927
H          3.29568        3.23198       -0.06677
H          5.49438        2.58222        1.97212
H          3.77423        2.13332        2.08692
H          4.25019        3.84290        2.16743
H          6.29239        3.92437       -0.15796
H          4.96600        5.08708        0.08906
H          5.12639        4.22718       -1.46401
