67

C          8.54923       -5.19482       -2.50678
C          8.19259       -3.86487       -1.83907
C          8.90056       -2.66174       -2.46917
C          8.53957       -1.32381       -1.81808
C          9.21973       -0.11870       -2.47362
C          8.80584        1.22792       -1.87290
C          9.39484        2.43162       -2.61784
C          8.87733        3.79115       -2.11990
Si         9.29064        5.26132       -3.25928
C          8.79452        4.77938       -5.00822
C          7.48690        4.31778       -5.26821
C          7.11648        3.83841       -6.52773
C          8.02921        3.80701       -7.60086
C          9.32188        4.30115       -7.34843
C          9.70158        4.76750       -6.08333
In         7.45707        2.96179       -9.56297
S          4.85423        3.73367       -9.74987
O          4.29097        3.53899      -11.10655
O          4.05507        3.23599       -8.60582
C          4.69449        5.65857       -9.53265
F          5.41089        6.32290      -10.47667
F          3.40245        6.05056       -9.64136
F          5.14934        6.06192       -8.31941
C          8.41145        3.93183      -11.29968
C          9.79794        4.16411      -11.34675
C         10.40733        4.79636      -12.43863
C          9.65056        5.22579      -13.53612
C          8.26613        4.99826      -13.50146
C          7.66168        4.36505      -12.41108
C         10.29831        5.89851      -14.72275
C          8.31779        6.77100       -2.65751
C         11.14173        5.65481       -3.17327
H          8.03062       -6.04013       -2.03219
H          9.63063       -5.39118       -2.44964
H          8.27226       -5.18934       -3.57163
H          8.44153       -3.91127       -0.76495
H          7.10183       -3.70798       -1.89041
H          8.65326       -2.61851       -3.54440
H          9.99356       -2.81343       -2.41706
H          8.79800       -1.35630       -0.74436
H          7.44482       -1.18537       -1.86191
H          8.98116       -0.11421       -3.55130
H         10.31634       -0.23333       -2.40751
H          9.09121        1.26737       -0.80619
H          7.70444        1.30630       -1.89598
H          9.15603        2.32636       -3.68899
H         10.49650        2.40083       -2.55089
H          9.23899        3.99771       -1.09714
H          7.77570        3.75144       -2.04402
H          6.73855        4.31878       -4.46786
H          6.09061        3.48913       -6.67573
H         10.06574        4.32761       -8.15072
H         10.72704        5.12098       -5.93640
H          7.14505        1.23890       -9.62152
H         10.43878        3.85290      -10.51572
H         11.48921        4.96448      -12.43463
H          7.64698        5.32844      -14.34174
H          6.57844        4.21695      -12.42835
H         11.33971        6.17524      -14.50617
H          9.75775        6.81226      -15.01239
H         10.30739        5.23799      -15.60499
H          7.23539        6.59902       -2.74349
H          8.55983        7.65877       -3.25917
H          8.54187        7.00098       -1.60481
H         11.75553        4.79943       -3.48928
H         11.43214        5.91588       -2.14472
H         11.39958        6.50714       -3.81850
