21

O          1.64085       -0.31054        1.06610
Nb         3.19104       -0.08400       -0.03925
C          4.80486        1.07229        1.10255
C          5.38885        0.45732        2.41561
C          6.10912        1.43911        3.41858
C          7.01321        0.75246        4.50707
F          8.13287        0.22293        3.97819
F          7.39889        1.68444        5.41895
F          6.34908       -0.21674        5.16915
F          6.92579        2.29759        2.74481
F          5.18724        2.16952        4.10705
F          4.35840       -0.11581        3.12407
F          6.29626       -0.52546        2.12587
F          5.90914        1.36404        0.30033
F          4.31056        2.32998        1.54041
S          2.40734        0.36642       -2.31140
H          0.79382        0.08754        0.81767
H          3.43807       -1.56302       -0.95851
H          4.50584       -1.16169        0.45560
H          3.47780        1.55169       -0.63895
H          2.08636       -0.85844       -2.81483
