18

C          1.10962       -0.04251        0.05108
N          2.52015       -0.04486        0.04869
C          2.99306       -0.98411       -0.88161
C          4.52780       -1.03934       -0.93618
C          5.09426       -2.05030       -1.93749
C          6.62598       -2.08899       -1.97594
H          0.70387        0.69002        0.77687
H          0.62460       -1.04523        0.31438
H          0.62448        0.21137       -0.95400
H          2.62673       -0.80025       -1.95450
H          2.62664       -2.05518       -0.68754
H          4.89707       -1.26730        0.08014
H          4.89716       -0.02527       -1.17379
H          4.70822       -1.81727       -2.94560
H          4.70831       -3.05616       -1.69477
H          7.04098       -1.10515       -2.24812
H          7.00777       -2.82381       -2.70390
H          7.04110       -2.35186       -0.98962
