36

C          2.19283        3.44044        0.41530
C          2.33696        2.34282        1.47669
C          3.15617        1.12820        0.99824
B          4.76636        1.37753        0.69723
C          5.48971       -0.03758        0.19921
C          5.01419       -0.48144       -1.17612
S          5.83348       -2.03130       -1.75398
C          5.04566       -2.23365       -3.37907
C          5.56053        1.99828        2.01279
C          5.50320        1.17643        3.30941
C          6.23349        1.80133        4.50633
C          6.14693        0.97043        5.79130
H          1.61949        4.30515        0.78926
H          1.67263        3.05277       -0.47646
H          3.18107        3.78839        0.08482
H          1.32306        2.03647        1.80320
H          2.81787        2.77977        2.37052
H          2.65124        0.72405        0.09654
H          3.04676        0.32828        1.76019
H          4.90511        2.19752       -0.23758
H          5.30573       -0.85774        0.92163
H          6.58700        0.10349        0.16458
H          5.22383        0.30049       -1.92380
H          3.92974       -0.67460       -1.18057
H          5.45111       -3.14405       -3.84138
H          5.26165       -1.37779       -4.03613
H          3.95508       -2.34261       -3.28232
H          5.17822        3.01483        2.23994
H          6.62724        2.15050        1.74888
H          5.92270        0.16871        3.13059
H          4.44826        1.00795        3.59650
H          5.81904        2.80848        4.69107
H          7.29358        1.95873        4.23915
H          5.09875        0.82673        6.09783
H          6.67876        1.44350        6.63246
H          6.58126       -0.03101        5.64340
