45

N          0.72227        0.24812       -0.94654
C          2.16761        0.18443       -1.24957
C          2.64234       -1.25850       -1.40554
C          4.13507       -1.37330       -1.74837
C          4.66402       -2.79638       -1.87081
P          6.59912       -2.92937       -2.23613
C          7.04635       -3.00579       -0.33801
C          7.19267       -4.42440        0.19170
C          7.64511       -4.53459        1.65460
C          7.82483       -5.97605        2.12400
N          8.25055       -6.03325        3.53847
C          6.36723       -2.83401       -4.20382
C          6.89688       -1.52442       -4.74017
S          7.00833       -1.52264       -6.57653
C          7.61256        0.16711       -6.87807
H          0.44650        1.21229       -0.75088
H          0.53895       -0.27705       -0.08836
H          2.79546        0.68321       -0.48331
H          2.33366        0.72810       -2.19467
H          2.03470       -1.75447       -2.18075
H          2.44491       -1.80499       -0.46393
H          4.72258       -0.83202       -0.98393
H          4.32428       -0.83131       -2.69304
H          4.14109       -3.33630       -2.67747
H          4.47305       -3.35556       -0.93726
H          6.74981       -1.43592       -2.16770
H          6.43253       -4.41518       -2.31839
H          8.07464       -3.06216       -2.53205
H          6.28903       -2.44892        0.24274
H          8.00251       -2.46067       -0.25271
H          7.91109       -4.96704       -0.45157
H          6.23287       -4.96022        0.07326
H          6.92136       -4.02971        2.31618
H          8.60321       -3.99542        1.77825
H          8.52871       -6.48716        1.43687
H          6.86342       -6.50987        2.04327
H          9.11742       -5.50166        3.64480
H          8.47719       -6.99499        3.79876
H          5.31590       -2.98422       -4.49674
H          6.96135       -3.68212       -4.57933
H          7.90716       -1.33487       -4.33655
H          6.25114       -0.68145       -4.44873
H          7.72364        0.29384       -7.96351
H          8.58935        0.33388       -6.40086
H          6.89837        0.91686       -6.50620
