39

C          8.31352       -0.51749        1.65102
S          6.53488       -0.14902        1.64962
C          6.36778        0.98370        0.19848
C          5.33324        2.00935        0.63727
Nb         5.64498        2.27981        2.84838
C          3.88460        2.98488        4.14016
C          3.69841        2.61364        5.64884
C          4.84136        3.10656        6.58955
F          6.02784        2.55888        6.24499
F          4.97219        4.44612        6.58486
F          4.58285        2.72931        7.87461
F          2.53137        3.14781        6.16907
F          3.60800        1.26201        5.83354
F          3.55743        4.35002        4.14179
F          2.76416        2.37151        3.51551
C          7.81649        2.56868        3.13569
C          8.56582        3.24884        2.15079
C          9.96273        3.33720        2.19665
C         10.69269        2.76492        3.24761
C          9.96498        2.09811        4.24695
C          8.57150        1.99905        4.18612
C         12.19738        2.87280        3.31255
H          8.51111       -1.15026        2.52532
H          8.89559        0.40841        1.73828
H          8.58420       -1.06709        0.73963
H          6.14749        0.38712       -0.70655
H          7.35281        1.45631        0.06623
H          4.30330        1.61390        0.56138
H          5.37655        2.91863        0.02220
H          4.93904        0.94161        3.79948
H          4.75565        3.63455        2.20902
H          6.00540        3.84631        3.55117
H          8.04792        3.74359        1.32087
H         10.49834        3.87170        1.40428
H         10.50177        1.64203        5.08622
H          8.06221        1.45497        4.98813
H         12.60212        3.32241        2.39457
H         12.67159        1.88664        3.44007
H         12.52644        3.49702        4.15946
