41

C          3.27478        1.24791       -2.23771
C          3.27066        0.77153       -0.78174
C          3.50389       -0.75007       -0.62872
Ta         5.62199       -1.27843       -0.51033
C          6.52335        0.02233        1.04211
C          7.40480        0.99355        0.50673
C          8.05022        1.94471        1.30490
C          7.80447        1.98344        2.68120
C          6.91935        1.06295        3.24123
C          6.30171        0.08733        2.44205
C          5.37992       -0.86675        3.15869
O          4.89857       -0.61364        4.25720
O          5.09572       -2.02365        2.54106
C          6.70419       -2.65709       -1.88628
C          8.05468       -2.23413       -2.48505
C          9.15398       -2.19025       -1.41282
C          8.48525       -3.15382       -3.64255
H          3.09417        2.33181       -2.31097
H          2.48994        0.73549       -2.81672
H          4.24038        1.02258       -2.71359
H          2.30724        1.05379       -0.31651
H          4.03176        1.34353       -0.21904
H          2.91359       -1.31278       -1.37094
H          3.14086       -1.09040        0.36193
H          6.09300       -0.29290       -1.98276
H          4.77008       -2.83106       -0.36739
H          6.45059       -2.43745        0.66026
H          7.58606        1.01207       -0.57270
H          8.73638        2.66411        0.84976
H          8.29505        2.72929        3.31077
H          6.68765        1.07640        4.30799
H          5.72866       -2.20663        1.72753
H          5.94511       -2.71194       -2.69782
H          6.79735       -3.67466       -1.47266
H          7.94006       -1.21340       -2.89296
H          9.28019       -3.18290       -0.94964
H          8.90494       -1.48752       -0.60473
H         10.12572       -1.89078       -1.83870
H          8.60158       -4.19168       -3.28960
H          9.44753       -2.83737       -4.08195
H          7.73077       -3.15755       -4.44370
