17

Ga         0.95508       -0.13474       -0.32863
C         -0.00385       -0.64343        1.38355
C         -0.99499       -1.80414        1.19071
C         -0.36006       -3.15141        0.82201
C          0.96247       -0.86580        2.55032
Br         1.73019        2.17607        0.00821
Cl         2.83422       -1.41445       -0.58950
H          0.17361       -0.16329       -1.70776
H         -0.59687        0.26388        1.59737
H         -1.72373       -1.53076        0.40800
H         -1.58728       -1.93986        2.12073
H          0.21415       -3.07951       -0.11308
H         -1.12705       -3.93186        0.69695
H          0.33834       -3.49364        1.59925
H          1.67751       -1.67593        2.34248
H          0.42663       -1.12209        3.48628
H          1.55638        0.03999        2.73999
