35

F          5.55741       -3.83122        0.80377
C          5.04535       -2.72597        1.39742
C          3.60868       -3.00518        1.93901
C          2.60982       -3.42515        0.88088
C          1.19062       -3.68010        1.42333
C          0.26585       -4.15949        0.29982
Ga        -1.66949       -4.34556        0.74581
S         -2.60540       -2.12148        1.23072
O         -4.03149       -1.90963        0.94217
O         -2.12544       -1.87668        2.60647
C         -1.71201       -0.63388        0.29950
C         -2.05499       -0.41986       -1.19505
F         -3.33964       -0.06069       -1.36092
F         -1.27940        0.56929       -1.72816
F         -1.81866       -1.54800       -1.89152
F         -2.02035        0.50134        0.97831
F         -0.36055       -0.83523        0.38882
S         -2.37596       -5.21277       -1.43298
O         -1.67332       -4.58249       -2.56475
O         -2.31588       -6.68377       -1.31344
C         -4.22914       -4.88000       -1.83921
F         -5.02459       -5.30267       -0.82904
F         -4.45671       -3.56595       -2.03596
F         -4.58135       -5.54674       -2.96268
F          3.75091       -3.97794        2.90757
F          3.21323       -1.85594        2.58187
F          5.88549       -2.36131        2.38967
F          5.02724       -1.73082        0.48012
H          3.00261       -4.33228        0.39665
H          2.58065       -2.63542        0.11509
H          0.80773       -2.75469        1.87662
H          1.23773       -4.42912        2.22816
H          0.59252       -5.14186       -0.07871
H          0.30819       -3.47353       -0.55961
H         -2.42278       -5.14088        1.85342
