17

Cl         3.40983        2.32356        0.60393
Al         2.56978        0.47185       -0.03158
S          4.16100       -0.36245       -1.66541
O          4.56805        0.78950       -2.48705
O          5.19485       -1.27596       -1.16340
C          3.18601       -1.41173       -3.00550
C          2.66794       -2.80191       -2.56313
F          3.68027       -3.64581       -2.30385
F          1.90140       -2.67946       -1.46200
F          1.90244       -3.36494       -3.54235
F          2.11331       -0.67318       -3.41296
F          4.02293       -1.57845       -4.06280
S          2.53221       -0.97438        1.86955
O          1.70653       -0.36107        2.90478
O          2.35585       -2.39306        1.59456
F          4.08185       -0.86754        2.47401
H          1.10902        0.41081       -0.64563
