89

C         14.29630      -12.24512       -1.62254
C         13.86494      -11.73620       -0.24541
C         12.89680      -10.55079       -0.31068
C         12.46184      -10.03854        1.06489
C         11.49511       -8.85144        1.01492
C         11.08972       -8.34379        2.40157
C         10.12225       -7.15330        2.38560
C          9.76812       -6.64729        3.79108
Si         8.57783       -5.16433        3.93488
C          8.41367       -4.72095        5.74777
C          9.36781       -3.89867        6.38613
C          9.30951       -3.64783        7.75716
C          8.30703       -4.19423        8.58885
C          7.35616       -5.00755        7.93959
C          7.40277       -5.26488        6.56446
B          8.29383       -3.85107       10.18482
C          7.75995       -2.33364       10.44899
C          6.79533       -1.69579        9.63849
C          6.32913       -0.40653        9.89586
C          6.83082        0.31411       10.99156
C          7.79719       -0.28463       11.81701
C          8.23934       -1.57731       11.54074
C          6.34517        1.70403       11.25619
C          4.94813        1.86179       11.97393
C          4.73389        1.28368       13.42493
C          5.51464        1.87090       14.67467
C          5.40066        3.41190       14.97826
C          5.84070        3.81880       16.43666
F          7.05412        3.32245       16.73972
F          5.90390        5.16683       16.50156
F          4.95492        3.39975       17.35756
F          6.19275        4.10075       14.12300
F          4.11518        3.82858       14.83122
F          5.00222        1.20926       15.75696
F          6.82645        1.55287       14.57569
F          3.40337        1.43327       13.70179
F          5.01141       -0.04236       13.41552
F          4.61486        3.18954       12.02761
F          4.01332        1.23870       11.20072
F          7.24305        2.43509       12.00701
F          6.16726        2.40253       10.07214
C          7.43930       -4.94193       11.04969
C          8.03400       -6.15658       11.45156
C          7.33840       -7.13558       12.16596
C          5.99340       -6.95225       12.52353
C          5.38477       -5.74882       12.14288
C          6.09170       -4.77523       11.42703
C          5.22636       -8.01887       13.26874
C          9.28163       -3.70780        2.94331
C          6.89979       -5.63611        3.18730
H         14.99131      -13.09316       -1.54317
H         14.80012      -11.45388       -2.19809
H         13.42892      -12.57861       -2.21208
H         14.75601      -11.44288        0.33520
H         13.39342      -12.55734        0.32062
H         12.00429      -10.84251       -0.89249
H         13.36908       -9.72723       -0.87542
H         13.35720       -9.75095        1.64402
H         11.99257      -10.86432        1.62837
H         10.59106       -9.13934        0.44927
H         11.95891       -8.02672        0.44493
H         11.99684       -8.05762        2.96271
H         10.63199       -9.16967        2.97424
H          9.20441       -7.44512        1.84503
H         10.57214       -6.33630        1.79436
H         10.69129       -6.36519        4.32749
H          9.33012       -7.46839        4.38573
H         10.17694       -3.44785        5.80103
H         10.07325       -3.00987        8.21310
H          6.55906       -5.46349        8.53429
H          6.63349       -5.90753        6.12307
H          9.46647       -3.89590       10.57991
H          6.40878       -2.22515        8.76376
H          5.58990        0.05243        9.23714
H          8.21006        0.26877       12.66139
H          9.00013       -2.02399       12.18637
H          9.08447       -6.33008       11.19951
H          7.84901       -8.05875       12.46054
H          4.34024       -5.56730       12.41772
H          5.57715       -3.84623       11.16445
H          5.89252       -8.62648       13.89884
H          4.71555       -8.71019       12.57728
H          4.45336       -7.58030       13.91668
H         10.27117       -3.40550        3.31490
H          8.61875       -2.83409        3.02013
H          9.38669       -3.96042        1.87780
H          6.44787       -6.48995        3.71188
H          7.00026       -5.90986        2.12654
H          6.19505       -4.79485        3.25296
