27

Br         1.92577       -1.78091        0.20629
Al         3.15727        0.22837        0.11669
S          4.69235        0.11560        1.95083
O          5.65653       -0.99718        1.74526
O          5.26780        1.45813        2.21895
C          3.77822       -0.32364        3.46945
C          4.35210        0.28473       -1.48646
C          5.44013       -0.58670       -1.66494
C          6.23749       -0.52902       -2.81861
C          5.97046        0.39962       -3.82339
C          4.89575        1.27995       -3.65973
C          4.10492        1.22272       -2.50704
C          4.61993        2.27431       -4.75223
F          5.68837        3.10168       -4.98394
F          4.35896        1.66514       -5.95348
F          3.55780        3.07966       -4.49059
C          7.40112       -1.47449       -2.95681
F          8.38716       -1.21747       -2.04978
F          7.03448       -2.77494       -2.76824
F          7.98935       -1.41475       -4.19061
H          2.20813        1.51347        0.28258
H          3.30623       -1.30271        3.32763
H          3.02929        0.45280        3.66735
H          4.52803       -0.35579        4.27101
H          5.68169       -1.31354       -0.88551
H          6.58810        0.43499       -4.71985
H          3.27757        1.92817       -2.40463
