72

O          4.59950        1.94504        4.90373
C          4.58300        2.94577        3.95055
O          4.25042        4.05982        4.27888
C          5.03377        2.49638        2.56722
C          4.77157        3.47311        1.42376
Al         5.52666        3.00910       -0.37004
S          4.47496        0.90743       -1.22382
O          3.02851        1.16872       -1.35111
O          5.19369        0.43325       -2.42461
C          4.32908       -0.77130       -0.10728
C          5.54335       -1.70505        0.18384
C          6.56320       -1.16312        1.24229
C          7.95147       -1.89932        1.28065
F          7.79281       -3.23243        1.41048
F          8.67466       -1.65301        0.17725
F          8.64897       -1.45224        2.34965
F          6.81645        0.14766        0.99934
F          6.02501       -1.27733        2.49143
F          5.08678       -2.91232        0.66206
F          6.20754       -1.95406       -0.97631
F          3.76229       -0.43480        1.10058
F          3.43367       -1.53507       -0.78910
C          7.51549        2.74956       -0.44918
C          8.36910        3.36369        0.49203
C          9.76189        3.25757        0.41563
C         10.38036        2.51360       -0.60954
C          9.53602        1.88945       -1.54981
C          8.14573        2.01185       -1.47438
Si        12.25093        2.39565       -0.72510
C         12.97288        2.15374        1.02506
C         12.44419        0.90677        1.74714
C         12.98700        0.77652        3.15973
C         12.43854       -0.41440        4.02709
C         12.62432       -1.90377        3.54248
C         14.06292       -2.53852        3.34824
C         15.04145       -2.56417        4.58126
C         16.27292       -3.53428        4.41343
F         16.93041       -3.29074        3.26399
F         17.11957       -3.32610        5.44287
F         15.89397       -4.82297        4.43535
F         15.54188       -1.32268        4.78566
F         14.37371       -2.96542        5.69368
F         13.83509       -3.83377        2.98210
F         14.68161       -1.91382        2.31490
F         11.96192       -2.68530        4.43621
F         12.01035       -2.03799        2.33293
F         12.97756       -0.33318        5.27837
F         11.09037       -0.24574        4.13895
F         14.36237        0.68172        3.15915
F         12.67923        1.89847        3.89727
C         12.77190        0.94431       -1.82079
C         12.99773        3.98943       -1.41930
H          4.86181        1.11451        4.46771
H          4.55684        1.52340        2.36247
H          6.11264        2.27296        2.66480
H          5.16956        4.46573        1.70021
H          3.68571        3.62260        1.31173
H          4.92635        3.82657       -1.62085
H          7.94183        3.94867        1.31399
H         10.37141        3.76224        1.17315
H          9.96856        1.29184       -2.35795
H          7.53217        1.50515       -2.22486
H         12.73934        3.05318        1.61589
H         14.07101        2.11096        0.94733
H         12.71380       -0.00583        1.19778
H         11.34608        0.92873        1.81357
H         12.35214       -0.00863       -1.46886
H         13.86760        0.84790       -1.83934
H         12.43473        1.08839       -2.85695
H         12.71668        4.85519       -0.80289
H         12.62778        4.17530       -2.43754
H         14.09608        3.93979       -1.45842
