35

F          5.00051        3.48836        4.15297
C          4.27074        4.22668        3.28079
C          2.74353        4.00367        3.50917
C          2.28732        2.57004        3.33940
C          0.77876        2.35438        3.55873
C          0.40425        0.87224        3.42592
Al        -1.49791        0.28629        3.56912
S         -2.55583        1.71993        1.91583
O         -2.71562        3.13169        2.31325
O         -1.89752        1.43871        0.62285
C         -4.37731        1.15884        1.59737
F         -5.11104        1.23060        2.73429
F         -4.95967        1.95173        0.66932
F         -4.43164       -0.11893        1.15081
C         -2.38821        0.43549        5.45121
C         -2.64136        1.79149        6.15061
C         -3.14597        1.79843        7.63445
F         -4.30794        1.12755        7.77005
F         -2.24045        1.25324        8.47389
F         -3.36033        3.07707        8.04120
F         -1.46701        2.50452        6.15317
F         -3.56394        2.48640        5.42701
F         -3.60233       -0.24931        5.46977
F         -1.53564       -0.29660        6.30615
F          2.48184        4.46821        4.78101
F          2.10170        4.84845        2.63384
F          4.61555        5.52225        3.44766
F          4.62935        3.86030        2.02673
H          2.86376        1.95500        4.04787
H          2.56963        2.24774        2.32534
H          0.21902        2.95965        2.83093
H          0.50210        2.73228        4.55308
H          0.96534        0.27855        4.17243
H          0.73520        0.49577        2.44081
H         -1.83637       -1.20736        3.08992
