14

N          1.19029        0.26738        0.24377
In         2.96560       -0.62091       -0.55428
C          4.22351       -1.39132        1.16152
O          3.35369       -1.97272        2.22767
C          3.95716       -2.48476        3.28317
F          4.74557       -1.59943        3.98517
F          3.01735       -2.94402        4.15765
F          4.78582       -3.55442        3.00633
F          4.21312        0.94390       -1.06061
H          1.18417        0.13586        1.26018
H          0.36884       -0.24859       -0.08465
H          2.72969       -1.59195       -2.00818
H          4.77182       -0.54914        1.60726
H          4.94351       -2.16854        0.86756
