51

N          2.50003        1.45654       -0.17825
C          3.84309        1.88184       -0.02857
N          4.25146        2.85049        0.72466
N          4.71031        1.11804       -0.77085
C          6.16321        1.25610       -0.66999
C          6.86852        0.78303       -1.94201
C          6.65933       -0.70489       -2.24543
C          7.29315       -1.22607       -3.55127
C          8.83762       -1.16546       -3.61103
S          9.37314       -2.19871       -5.13853
O          8.51267       -1.79509       -6.25646
O         10.81747       -2.15090       -5.30183
C          8.98126       -4.12115       -4.98089
C          8.63400       -4.71776       -6.39800
C          8.64148       -6.29260       -6.46315
F          7.86224       -6.83543       -5.50620
F          8.15191       -6.68298       -7.66757
F          9.88255       -6.79794       -6.34596
F          7.38681       -4.33251       -6.77714
F          9.53637       -4.30188       -7.32608
F         10.06646       -4.77956       -4.53477
F          7.91685       -4.37450       -4.17869
C          9.42174        0.19466       -3.96077
C         10.63602        0.61596       -3.38654
C         11.19027        1.85183       -3.71361
C         10.57073        2.71197       -4.63365
C          9.37398        2.28356       -5.22176
C          8.81165        1.04747       -4.89581
C         11.19029        4.03972       -4.99509
C          9.44612       -1.86503       -2.32517
O          9.69805       -3.08370       -2.47045
O          9.53209       -1.12641       -1.31602
H          1.83586        2.14357        0.16563
H          2.26583        1.17343       -1.12850
H          3.45464        3.36742        1.10654
H          4.37735        0.18670       -0.99839
H          6.54767        0.69696        0.20244
H          6.36426        2.31791       -0.48082
H          7.94490        0.95902       -1.80814
H          6.53247        1.40035       -2.79197
H          5.57928       -0.92723       -2.33515
H          7.04445       -1.29342       -1.39891
H          6.86390       -0.69352       -4.41287
H          6.99053       -2.27600       -3.65891
H         11.12155       -0.02425       -2.65265
H         12.12702        2.15728       -3.23950
H          8.87233        2.92580       -5.95071
H          7.89354        0.74030       -5.39563
H         11.55719        4.56787       -4.10276
H         10.46926        4.69245       -5.50626
H         12.05238        3.90645       -5.66856
