30

Br         1.12398        0.26710       -0.39927
B          3.26230        0.61142        0.02175
C          3.92387        1.39112       -1.23437
C          3.43537        2.85200       -1.48798
C          2.78763        3.04478       -2.85053
O          3.29551        3.71810       -3.75687
N          1.58579        2.41382       -3.00552
C          3.86948       -0.86380        0.32560
C          5.33148       -0.81483        0.79978
C          5.85446       -2.20698        1.18816
C          7.23641       -2.29145        1.80085
C          8.44190       -1.84991        0.90941
F          8.43425       -0.52156        0.67855
F          9.62041       -2.15547        1.50419
F          8.40727       -2.48713       -0.28627
F          7.32723       -1.55209        2.96011
F          7.50914       -3.60530        2.15673
H          3.20366        1.31060        1.02717
H          3.82820        0.80033       -2.16369
H          5.01295        1.43823       -1.04738
H          4.26606        3.56781       -1.44387
H          2.71007        3.13261       -0.70642
H          1.26401        1.73543       -2.30404
H          1.20136        2.37525       -3.94210
H          3.80518       -1.51088       -0.57055
H          3.26305       -1.36318        1.10207
H          5.41897       -0.13782        1.66492
H          5.96513       -0.38716        0.00791
H          5.84146       -2.87937        0.31658
H          5.18620       -2.65519        1.94128
