39

C          1.18777        0.41281       -0.25086
C          2.54616       -0.26563       -0.22230
As         2.90531       -1.06657        1.67013
C          2.59961       -3.09951        0.99432
O          1.19914       -3.22297        0.54260
C          0.76098       -4.42521        0.22951
F          1.43226       -5.02866       -0.81692
F          0.81169       -5.34283        1.25729
F         -0.54530       -4.34226       -0.14988
C          4.98328       -1.27984        1.28061
C          5.61059       -2.36308        2.13721
C          7.13649       -2.29280        2.28900
C          7.68961       -3.40401        3.18192
N          9.14395       -3.32720        3.27514
C          9.88841       -4.23393        4.00204
N          9.48636       -5.30302        4.60511
N         11.25480       -3.89276        4.05532
H          1.02384        1.02757       -1.15382
H          1.07347        1.07914        0.62299
H          0.37475       -0.32623       -0.19623
H          3.36616        0.45400       -0.37115
H          2.63021       -1.06406       -0.97534
H          3.19976       -1.65459        3.15506
H          3.10930        0.45452        2.22113
H          1.34400       -1.00955        2.01290
H          2.74792       -3.77759        1.84735
H          3.25180       -3.37853        0.15214
H          5.38325       -0.28192        1.52586
H          5.12025       -1.46436        0.20381
H          5.34918       -3.35870        1.73561
H          5.14694       -2.32082        3.14477
H          7.41197       -1.31019        2.71432
H          7.61950       -2.35233        1.29891
H          7.41957       -4.38605        2.75924
H          7.21928       -3.34351        4.18288
H          9.52644       -2.38671        3.23472
H          8.46486       -5.36248        4.60035
H         11.63707       -3.61294        3.15432
H         11.78244       -4.66339        4.45787
