22

N          1.07422       -0.10019        0.04851
C          2.49266       -0.07183        0.04219
C          3.00805        1.04297        0.97473
C          4.53341        1.13854        1.04153
C          5.04699        2.22762        1.97883
N          6.50813        2.24495        1.99470
C          7.24288        3.10203        2.78230
N          6.81684        4.08097        3.51410
N          8.62583        2.82908        2.74417
H          0.77057       -0.83339       -0.60681
H          2.99667        0.12561       -0.96280
H          3.02698       -1.01904        0.39680
H          2.58631        0.85998        1.97915
H          2.57545        1.99830        0.62775
H          4.93812        1.31766        0.03010
H          4.94028        0.16364        1.37199
H          4.64297        2.06634        2.99775
H          4.68613        3.21467        1.64284
H          6.94592        1.35046        1.79191
H          5.79370        4.08542        3.54256
H          8.97586        2.64336        1.80276
H          9.13684        3.59645        3.17701
