39

N          1.70758       -0.86915        0.66963
C          2.45244        0.08687       -0.17732
C          3.22900        1.08837        0.67774
N          3.92202        2.01850       -0.17064
C          4.62423        2.97516        0.42136
C          5.33611        3.93012       -0.40051
C          6.09073        4.95113        0.12575
C          6.21149        5.13071        1.53182
C          5.52352        4.21981        2.36795
C          4.76195        3.19023        1.85057
C          7.04844        6.19372        2.10344
C          8.41017        5.78147        2.78521
C          9.46757        4.94473        1.96511
C         10.15296        5.50821        0.65784
C         11.00022        6.84470        0.67246
C         12.23604        6.96782        1.63914
F         13.06614        5.91411        1.51556
F         12.92326        8.08487        1.29838
F         11.86842        7.08630        2.92174
F         11.50690        6.95979       -0.59363
F         10.19522        7.90646        0.89950
F         11.00768        4.52301        0.24206
F          9.21809        5.67535       -0.30532
F         10.49975        4.66859        2.83203
F          8.91379        3.76502        1.60245
F          9.07209        6.89308        3.25764
F          8.13083        4.99924        3.87135
F          7.39367        7.16040        1.17037
F          6.40349        6.88394        3.15359
H          1.07907       -1.43054        0.09328
H          1.10643       -0.34409        1.30971
H          1.81312        0.66288       -0.87379
H          3.16720       -0.47962       -0.79509
H          3.90584        0.51675        1.35434
H          2.49506        1.59085        1.36018
H          5.24500        3.81126       -1.48216
H          6.59919        5.64351       -0.54622
H          5.58411        4.34063        3.45209
H          4.24488        2.52560        2.54380
