32

N          1.10219       -1.52738        3.94327
C          2.44586       -1.75029        4.33178
N          2.86841       -2.00153        5.52535
N          3.31573       -1.63784        3.27006
C          4.76452       -1.67885        3.46201
C          5.46786       -1.54201        2.11290
C          7.00542       -1.52689        2.21649
C          7.63982       -2.83408        2.71095
Nb         9.64547       -2.98883        1.88941
S         10.88762       -4.90235        0.89626
O         11.94968       -4.11516        0.21737
O         11.29423       -6.10901        1.63527
C          9.99036       -5.74390       -0.60425
F          8.76234       -6.20692       -0.22934
F          9.80427       -4.91739       -1.66141
F         10.70457       -6.80678       -1.05087
Cl        10.57218       -0.89798        2.45484
H          0.44026       -1.80905        4.66017
H          0.86420       -1.94937        3.04731
H          2.08301       -2.15986        6.16288
H          3.00238       -1.02252        2.52465
H          5.01833       -2.63084        3.94732
H          5.09204       -0.87801        4.15007
H          5.12952       -0.60461        1.63063
H          5.15443       -2.36991        1.45473
H          7.31917       -0.69926        2.87416
H          7.39248       -1.26486        1.21390
H          7.22661       -3.70935        2.15758
H          7.46270       -3.02475        3.77644
H          9.39147       -4.30176        3.00418
H          9.18302       -3.21337        0.18085
H         11.04058       -3.66874        2.67420
