50

S          1.01344        1.24253       -0.15728
C          2.72008        0.55009        0.05496
C          3.44388        1.33196        1.15048
C          4.87080        0.88321        1.38773
As         5.76106        2.18236        2.80252
C          5.05542        1.02906        4.44634
C          4.34437        1.73866        5.42157
C          3.93895        1.14194        6.61547
C          4.23671       -0.21206        6.88625
C          4.93613       -0.93196        5.89907
C          5.32885       -0.31982        4.70148
Si         3.89841       -0.90567        8.58499
C          5.04293        0.01212        9.80935
C          6.48608        0.11641        9.30053
C          7.43315        0.79528       10.26367
F          7.05440        2.06924       10.56990
F          7.53692        0.12769       11.45677
F          8.69978        0.87458        9.76011
C          2.11606       -0.61463        9.14680
C          4.28153       -2.75698        8.67495
C          7.66799        1.30645        2.70882
N          8.68251        2.34576        2.75106
H          0.59970        0.40006       -1.13357
H          3.25329        0.63829       -0.90186
H          2.63629       -0.51294        0.31978
H          2.87047        1.25403        2.09122
H          3.43897        2.40517        0.88547
H          5.49206        0.98780        0.48394
H          4.92486       -0.15425        1.75118
H          6.41677        3.21575        3.90353
H          6.27414        3.17371        1.58381
H          4.39235        3.00185        2.91614
H          4.11608        2.79630        5.23482
H          3.39657        1.74055        7.35720
H          5.18887       -1.98417        6.06624
H          5.87454       -0.91669        3.96270
H          5.01020       -0.49148       10.78884
H          4.63259        1.02353        9.95867
H          6.52597        0.68045        8.35669
H          6.91868       -0.87423        9.09245
H          1.85432        0.45097        9.08389
H          1.96668       -0.94099       10.18655
H          1.41456       -1.16833        8.50732
H          5.33366       -2.96821        8.43731
H          3.66089       -3.32061        7.96431
H          4.07997       -3.14224        9.68493
H          7.73427        0.74978        1.76222
H          7.79621        0.62114        3.55855
H          8.52038        2.89695        3.60480
H          8.47401        3.00700        1.99043
