36

N          3.38949        1.82790       -0.94686
C          2.75647        0.72734       -0.19180
C          2.98547       -0.62503       -0.87253
C          4.48757       -0.96503       -0.99797
C          4.99178       -1.69753       -2.27331
C          4.34805       -3.09917       -2.32066
C          4.50432       -4.19109       -3.48150
C          5.90882       -4.72656       -3.94117
F          6.68506       -5.03453       -2.87346
F          5.71688       -5.87744       -4.64487
F          6.58042       -3.88920       -4.73585
F          3.88109       -5.32092       -2.97423
F          3.81677       -3.84186       -4.58736
F          4.70908       -3.80144       -1.16613
F          2.96953       -2.99180       -2.26314
C          4.70109       -0.84793       -3.61191
O          4.22709        0.30676       -3.44730
O          5.05964       -1.41685       -4.66666
C          6.53713       -1.84668       -2.18222
C          7.32415       -0.52863       -2.14567
C          8.83291       -0.77788       -2.23777
H          2.72599        2.58712       -1.09079
H          3.65737        1.47625       -1.87995
H          1.66614        0.88097       -0.08158
H          3.16710        0.70109        0.83818
H          2.53551       -0.57625       -1.87230
H          2.45632       -1.41012       -0.30997
H          4.81473       -1.52435       -0.10471
H          5.03740       -0.01677       -0.99041
H          6.88207       -2.39243       -3.06744
H          6.79925       -2.44733       -1.29409
H          7.10636        0.03042       -1.22291
H          7.00066        0.11099       -2.98059
H          9.18752       -1.41175       -1.40913
H          9.40031        0.16415       -2.20330
H          9.09088       -1.29017       -3.17718
