28

C          0.95017        1.17879       -0.56620
C          2.35593        0.63910       -0.28477
C          3.16275        0.33718       -1.55295
C          4.57265       -0.21876       -1.28414
C          5.38127       -0.53797       -2.55243
Ta         7.28715       -1.59416       -2.12438
C          7.81404       -4.26230       -2.84266
C          7.04067       -4.15123       -1.72275
O          6.14310       -3.18486       -1.58181
O          7.16718       -4.92255       -0.60207
I          9.17129       -1.91228        0.04759
H          0.40057        1.40067        0.36144
H          0.35428        0.45308       -1.14116
H          0.99301        2.10684       -1.15757
H          2.28179       -0.27899        0.32288
H          2.91167        1.36422        0.33383
H          3.24721        1.25751       -2.15895
H          2.60363       -0.38404       -2.17618
H          4.46405       -1.12974       -0.66619
H          5.13006        0.50038       -0.65944
H          5.55749        0.38267       -3.13555
H          4.78927       -1.20747       -3.20567
H          7.40746        0.01711       -1.36889
H          7.06712       -1.61932       -3.89170
H          8.82036       -1.55494       -3.01989
H          8.68376       -4.91669       -2.86553
H          7.52954       -3.72413       -3.74513
H          7.96675       -5.46465       -0.70267
