33

C          0.35837       -0.26583       -0.57181
C          1.83633       -0.06846       -0.22287
C          2.54721        0.94605       -1.12575
C          4.03024        1.14449       -0.79775
C          4.73793        2.13956       -1.71985
C          6.23256        2.30526       -1.40945
N          6.81183        3.26020       -2.31268
C          8.06473        3.33793       -2.59659
C          9.26545        3.47548       -1.57915
C          9.64753        2.32663       -0.56991
C         10.06256        0.90087       -1.08735
F         10.99566        0.95249       -2.04897
F         10.61506        0.22669       -0.02768
F          9.01912        0.17220       -1.49927
F         10.73505        2.78128        0.14170
F          8.64391        2.12945        0.33258
F         10.44145        3.78534       -2.21689
F          8.99074        4.55151       -0.74551
F          8.70493        2.05843       -3.39410
F          8.33441        4.36379       -3.52227
H         -0.12372       -1.00471        0.08549
H          0.24006       -0.61583       -1.60873
H         -0.20181        0.67755       -0.48027
H          2.36115       -1.03714       -0.28656
H          1.92836        0.25299        0.82881
H          2.02526        1.91812       -1.06239
H          2.44966        0.62352       -2.17804
H          4.54563        0.16823       -0.85070
H          4.12965        1.47790        0.25153
H          4.25757        3.13108       -1.65334
H          4.63898        1.82287       -2.77174
H          6.70409        1.30386       -1.48060
H          6.32004        2.61321       -0.34348
