29

Br         1.07488       -0.27818       -1.02029
B          3.07835       -0.67531       -0.77506
S          3.34461       -1.75644        0.84785
O          2.40936       -2.87692        0.98281
O          4.78226       -2.05127        0.96222
C          3.07790       -0.70010        2.51142
C          1.69670       -0.84006        3.21594
C          1.43126        0.15414        4.40573
F          2.40795        0.09074        5.33650
F          1.33027        1.42903        3.98274
F          0.26230       -0.17127        5.01342
F          0.69442       -0.63628        2.32441
F          1.58829       -2.09442        3.73722
F          4.03447       -1.10400        3.39334
F          3.29777        0.62396        2.23725
C          3.93692        0.68668       -0.87153
C          5.47346        0.64036       -0.72516
C          6.13291       -0.23485       -1.79843
C          6.05880        2.05988       -0.75859
H          3.37376       -1.57660       -1.53440
H          3.53641        1.42915       -0.16172
H          3.70479        1.09890       -1.87308
H          5.71619        0.19623        0.25376
H          5.89287        0.14025       -2.80798
H          5.78437       -1.27305       -1.73011
H          7.22963       -0.23508       -1.69212
H          5.84564        2.54806       -1.72474
H          7.15249        2.05171       -0.62176
H          5.62238        2.68809        0.03262
