88

C          0.93688       -0.29646        0.37408
C          2.46185       -0.24558        0.24542
C          2.97283       -0.64742       -1.14271
C          4.49755       -0.58551       -1.27666
C          5.01900       -0.96129       -2.66736
C          6.54308       -0.87068       -2.79108
C          7.07575       -1.19448       -4.19209
C          8.60150       -1.07205       -4.31377
Si         9.30824       -1.41629       -6.04712
C          8.87837       -3.14814       -6.61871
C          7.62522       -3.44125       -7.19365
C          7.30815       -4.73295       -7.62429
C          8.21064       -5.81198       -7.51746
C          9.45079       -5.50657       -6.91760
C          9.78186       -4.22097       -6.48126
Al         7.83232       -7.65682       -8.27322
C          5.84544       -7.79628       -8.69766
C          4.86528       -7.82448       -7.68379
C          3.50501       -7.99390       -7.94926
C          3.07115       -8.13684       -9.27523
C          4.01243       -8.09604      -10.31651
C          5.36511       -7.93012      -10.01728
C          1.62127       -8.34502       -9.58747
C          1.19141       -9.77849      -10.09160
C          1.55064      -11.05445       -9.23437
C          0.98889      -11.26628       -7.77339
C         -0.56561      -11.32961       -7.48363
C         -1.44551      -12.39964       -8.23062
F         -0.90067      -13.62776       -8.15067
F         -2.65839      -12.43557       -7.63424
F         -1.62674      -12.08386       -9.52126
F         -0.66858      -11.61560       -6.15291
F         -1.12390      -10.11582       -7.69931
F          1.51003      -12.45530       -7.35462
F          1.47479      -10.29093       -6.96781
F          1.12953      -12.13639       -9.96320
F          2.89750      -11.12838       -9.12160
F         -0.16013       -9.78836      -10.29691
F          1.78596       -9.99920      -11.30006
F          0.81143       -8.06373       -8.51018
F          1.20444       -7.50934      -10.61299
C          8.28022       -9.08665       -6.90336
C          7.66946      -10.48096       -7.14325
C          8.05148      -11.04385       -8.52089
C          8.03548      -11.48654       -6.03690
C          8.60253       -0.12820       -7.24500
C         11.18545       -1.18039       -5.95845
H          0.60421       -0.00348        1.38018
H          0.55387       -1.30944        0.17892
H          0.45335        0.38062       -0.34640
H          2.91770       -0.90496        1.00372
H          2.81757        0.77244        0.48046
H          2.51264        0.00847       -1.90321
H          2.62495       -1.66867       -1.37831
H          4.95641       -1.25087       -0.52378
H          4.84198        0.43379       -1.02497
H          4.55307       -0.30150       -3.42104
H          4.69064       -1.98430       -2.92072
H          7.01199       -1.55255       -2.05946
H          6.87095        0.14591       -2.50695
H          6.58671       -0.52149       -4.91853
H          6.76531       -2.21418       -4.47536
H          9.08888       -1.77075       -3.61120
H          8.92441       -0.05947       -4.00911
H          6.88347       -2.64553       -7.32099
H          6.32316       -4.90168       -8.07261
H         10.19838       -6.29869       -6.79620
H         10.76852       -4.04974       -6.03845
H          8.64489       -7.83091       -9.69032
H          5.17199       -7.71476       -6.63858
H          2.78017       -8.01101       -7.13543
H          3.68466       -8.19107      -11.35302
H          6.08028       -7.90746      -10.84531
H          7.96803       -8.72320       -5.90585
H          9.38306       -9.18347       -6.84285
H          6.56818      -10.37433       -7.13371
H          9.14625      -11.13964       -8.61275
H          7.71840      -10.37925       -9.33044
H          7.61028      -12.03940       -8.69065
H          9.12579      -11.65164       -6.01026
H          7.55180      -12.46719       -6.18853
H          7.73602      -11.11019       -5.04704
H          7.51211       -0.21874       -7.34665
H          9.03827       -0.25505       -8.24596
H          8.82548        0.89170       -6.89823
H         11.64355       -1.85212       -5.21896
H         11.43012       -0.14764       -5.66980
H         11.65289       -1.38424       -6.93201
