37

C          0.66274        0.79789        0.95596
C          2.14408        0.89646        1.33478
N          2.88707        1.54586        0.28891
C          4.19710        1.68754        0.47121
C          4.98314        2.33602       -0.55731
C          6.34441        2.51800       -0.44819
C          7.09510        2.08260        0.68929
C          6.33764        1.45024        1.70800
C          4.96629        1.25469        1.62214
Si         8.90620        2.38309        0.81065
C          9.29076        4.26777        0.78168
C          8.48282        5.04327        1.82680
C          8.71199        6.53564        1.81523
F          8.39008        7.11667        0.62389
F          7.96634        7.17627        2.77005
F         10.01680        6.87512        2.06726
C          9.63815        1.68077        2.41927
C          9.90269        1.66603       -0.64355
H          0.07152        0.31048        1.74898
H          0.54564        0.22301        0.02481
H          0.25010        1.80210        0.77522
H          2.51983       -0.13435        1.55140
H          2.22063        1.43457        2.31199
H          4.44257        2.68275       -1.44207
H          6.86402        3.01900       -1.27487
H          6.84989        1.09411        2.60998
H          4.45414        0.76160        2.45074
H          9.04477        4.64408       -0.22472
H         10.37128        4.43338        0.92697
H          8.71754        4.70674        2.84851
H          7.40473        4.87742        1.67748
H          9.15400        2.10393        3.31120
H         10.71568        1.89460        2.48415
H          9.50750        0.58978        2.46210
H          9.49789        2.02371       -1.60195
H          9.83709        0.56834       -0.65006
H         10.96646        1.94804       -0.59803
