27

O          2.21119        0.53094        1.87080
C          2.08875       -0.81831        1.62055
O          1.00040       -1.33616        1.73966
C          3.34472       -1.53309        1.22521
C          4.59254       -1.02584        1.64222
C          5.77638       -1.66783        1.28279
C          5.71303       -2.82063        0.49577
C          4.47007       -3.32928        0.10378
C          3.25517       -2.71769        0.45974
In         1.39733       -3.70125       -0.30747
S         -0.13836       -4.79733        1.51629
O         -1.06948       -5.73435        0.83559
O          0.66831       -5.35622        2.63226
C         -1.22828       -3.55968        2.29798
C          0.12474       -2.15431       -1.41466
F          0.74153       -0.91194       -1.50988
F         -0.13837       -2.50547       -2.73183
F         -1.11538       -1.88765       -0.87283
H          3.10619        0.80645        1.60537
H          4.65079       -0.15110        2.29849
H          6.73654       -1.27546        1.62292
H          6.63326       -3.32753        0.19611
H          4.44430       -4.24121       -0.50083
H          1.88407       -5.06146       -1.31118
H         -1.80848       -3.05678        1.51545
H         -0.61654       -2.84075        2.85119
H         -1.88123       -4.14006        2.96381
