29

C          0.83622       -0.18563        0.19487
C          2.36660       -0.16237        0.15180
C          2.93525       -0.08262       -1.26838
C          4.46568       -0.05304       -1.32979
C          5.03386        0.01323       -2.75621
C          6.56333        0.06009       -2.84551
Al         7.35079        0.12802       -4.70554
C          6.60152        1.59662       -5.87187
C          6.98354        3.01083       -5.39864
I          6.68421       -2.20754       -5.88922
H          0.45442       -0.24623        1.22513
H          0.43856       -1.04889       -0.36041
H          0.41406        0.72110       -0.26518
H          2.76310       -1.06413        0.64930
H          2.73903        0.69429        0.73979
H          2.53405        0.81746       -1.76882
H          2.56520       -0.94190       -1.85593
H          4.87024       -0.94939       -0.82540
H          4.83856        0.81229       -0.75110
H          4.60290        0.89821       -3.26073
H          4.66149       -0.85849       -3.32416
H          6.99119       -0.81699       -2.32516
H          6.93868        0.94339       -2.29026
H          8.98397        0.16331       -4.66075
H          5.50244        1.50585       -5.93149
H          6.96474        1.43898       -6.90235
H          6.60218        3.21718       -4.38447
H          6.59941        3.81841       -6.05064
H          8.07806        3.13500       -5.35000
