41

C          5.42305       -6.81339       -3.19364
O          5.03977       -5.77355       -2.31933
C          5.98469       -4.70315       -2.31404
C          5.67229       -3.72966       -1.19438
O          6.10698       -4.27906        0.02743
C          6.01682       -3.37097        1.13663
C          6.86803       -3.90109        2.28181
Al         8.80136       -4.30704        1.81190
C          9.71676       -2.54093        1.07769
C          9.67057       -1.14871        1.75735
C         10.25409       -1.05826        3.20232
F          9.56222       -1.83696        4.05966
F         11.55299       -1.41791        3.25332
F         10.16795        0.22163        3.65546
F         10.33780       -0.18788        1.02524
F          8.36314       -0.73868        1.85284
F         11.08785       -2.77807        0.85522
F          9.18876       -2.27316       -0.20420
C          9.90256       -4.98078        3.38581
C          9.83674       -6.50511        3.54226
C         10.74656       -7.19163        4.56362
O         10.69976       -8.40225        4.80125
N         11.63305       -6.36872        5.20002
H          4.65407       -7.59506       -3.12952
H          6.40084       -7.24679       -2.90901
H          5.49225       -6.46633       -4.24540
H          5.95443       -4.17362       -3.28917
H          7.00758       -5.09545       -2.16165
H          4.58268       -3.50920       -1.18311
H          6.20492       -2.77791       -1.40155
H          4.94162       -3.25141        1.40169
H          6.38298       -2.37488        0.81683
H          6.39477       -4.80935        2.69692
H          6.84767       -3.15502        3.09606
H          9.07041       -5.31989        0.56549
H          9.61876       -4.48370        4.32916
H         10.93929       -4.66931        3.15373
H         10.05310       -7.00239        2.58058
H          8.81647       -6.83838        3.79709
H         11.66205       -5.38317        4.96320
H         12.29408       -6.76910        5.85269
