23

F          1.30542       -0.64335       -0.21895
C          2.53471       -0.00377       -0.21786
C          3.36032       -0.31406        0.94149
C          4.23240        0.72722        1.46897
F          4.62165        1.67426        0.55158
F          3.70686        1.51470        2.53838
F          5.41131        0.24755        2.01489
C          3.31333       -1.62736        1.55374
C          3.67789       -1.85560        2.91000
C          3.64318       -3.12368        3.48454
C          3.22763       -4.25664        2.76923
C          2.85681       -4.04646        1.43069
C          2.90334       -2.78917        0.83811
C          3.15762       -5.62229        3.40611
F          3.06353       -0.37584       -1.49164
F          2.24538        1.32951       -0.38062
H          3.98507       -1.01328        3.52888
H          3.93606       -3.23200        4.53407
H          2.53858       -4.90015        0.82293
H          2.63536       -2.70000       -0.21413
H          3.72459       -5.65085        4.34839
H          3.57106       -6.40329        2.74725
H          2.12070       -5.92205        3.64203
