46

C          1.26756       -0.20394       -2.10220
C          2.77318       -0.20456       -1.82383
C          3.23095       -1.38474       -0.95940
C          4.74056       -1.39168       -0.67260
C          5.20840       -2.55794        0.17706
As         7.27366       -2.87616        0.19306
C          7.63808       -1.48262        1.87557
C          8.65143       -0.30893        1.74187
C          8.10953        0.99264        1.05048
C          9.21853        1.98246        0.53531
F         10.11290        2.27716        1.50158
F          9.87793        1.48818       -0.52685
F          8.62785        3.14167        0.15082
F          7.34065        0.68703       -0.02592
F          7.34884        1.69539        1.93846
F          9.11959        0.09668        2.97691
F          9.74339       -0.74163        1.03656
F          6.48084       -0.92345        2.42381
F          8.17450       -2.28074        2.87755
C          7.04712       -4.38277       -1.38383
C          8.30549       -4.99472       -2.05412
C          9.07107       -6.06593       -1.19517
C         10.56753       -6.30107       -1.61475
F         10.67553       -6.55058       -2.93730
F         11.34619       -5.25013       -1.30842
F         11.04924       -7.38050       -0.94943
F          9.08417       -5.72320        0.11660
F          8.44210       -7.27079       -1.31677
F          7.99531       -5.62003       -3.24550
F          9.17186       -3.97997       -2.36720
F          6.27752       -5.46063       -0.95088
F          6.33660       -3.81207       -2.43475
H          0.96499        0.65159       -2.72472
H          0.69159       -0.15497       -1.16492
H          0.96172       -1.12263       -2.62606
H          3.05664        0.73911       -1.32678
H          3.32592       -0.22074       -2.77861
H          2.95444       -2.33065       -1.45849
H          2.67550       -1.37206       -0.00434
H          5.01253       -0.44185       -0.18298
H          5.28483       -1.39840       -1.63527
H          4.80459       -3.51784       -0.17943
H          4.94597       -2.44607        1.23801
H          8.83634       -3.12167        0.24488
H          7.04450       -4.01284        1.29495
H          7.47516       -1.77005       -0.94791
