33

N          0.64663       -0.49651        0.41001
C          2.09989       -0.41979        0.13943
C          2.85337       -0.05496        1.41718
C          4.38131        0.13369        1.26061
C          5.03505       -1.17780        0.60567
O          4.62468       -2.26338        1.08714
O          5.91305       -0.98356       -0.28174
C          4.70554        1.33740        0.34819
C          4.50195        2.74120        0.86840
O          3.70811        3.12723        1.69881
O          5.31118        3.68862        0.25351
C          4.97571        0.25908        2.69183
C          6.50313        0.13618        2.88835
C          7.30369        1.37245        2.45196
C          6.79646       -0.16943        4.36573
H          0.14504       -0.70248       -0.45599
H          0.31610        0.42180        0.71669
H          2.33479        0.30075       -0.67014
H          2.43960       -1.41025       -0.19679
H          2.68890       -0.87109        2.13448
H          2.42017        0.86679        1.84739
H          4.07563        1.27266       -0.55763
H          5.72671        1.18603       -0.03714
H          5.91048        3.20528       -0.34238
H          4.52103       -0.57000        3.25612
H          4.62182        1.19478        3.16239
H          6.84903       -0.72188        2.28887
H          6.92178        2.28648        2.93588
H          7.26866        1.51858        1.36564
H          8.36447        1.26611        2.72957
H          6.43382        0.64370        5.01734
H          7.87782       -0.28133        4.54393
H          6.30091       -1.09872        4.68208
