31

N          3.82745        1.52717        2.90793
C          2.80485        1.32769        1.79395
C          2.85553       -0.01475        1.17815
C          2.34918       -1.18914        1.96379
C          0.82218       -1.32978        2.14463
O          0.18770       -1.68690        0.90601
C         -1.21172       -1.53609        0.92129
C         -1.69465       -1.70716       -0.51361
O         -3.12322       -1.67052       -0.52887
C         -3.63238       -1.76583       -1.84159
C          3.20466       -0.17223       -0.24455
N          2.03506       -0.10716       -1.24692
H          3.87694        2.52962        3.15004
H          4.73646        1.27672        2.50263
H          2.93134        2.08810        0.99733
H          1.83897        1.57854        2.29960
H          2.73932       -1.18431        3.00644
H          2.70680       -2.13855        1.51558
H          0.40217       -0.36861        2.50124
H          0.57875       -2.11178        2.90181
H         -1.50120       -0.53399        1.29685
H         -1.70128       -2.28894        1.57612
H         -1.33088       -2.67315       -0.91625
H         -1.27774       -0.90026       -1.14527
H         -4.72840       -1.72633       -1.77453
H         -3.33701       -2.71704       -2.32818
H         -3.27980       -0.93200       -2.47951
H          3.73687       -1.14032       -0.41297
H          3.89254        0.63170       -0.57039
H          1.30635       -0.70347       -0.84051
H          2.32267       -0.58305       -2.11930
