25

Cl         1.72831       -0.27172       -1.23354
B          3.46068       -0.57640       -0.59459
S          3.84488        0.69816        0.87498
O          5.19644        0.40146        1.38516
O          3.52119        2.10699        0.61784
C          2.74205        0.18329        2.47385
C          1.63890        1.14973        3.02024
C          0.33337        1.46359        2.18956
C         -0.75764        0.33822        2.02860
F         -1.24008       -0.05185        3.23104
F         -1.79199        0.86334        1.32542
F         -0.31164       -0.73610        1.37589
F         -0.30328        2.47642        2.86805
F          0.64883        1.91356        0.96247
F          1.20122        0.65072        4.23111
F          2.22666        2.34917        3.27226
F          2.19035       -1.04653        2.27037
F          3.62909        0.06921        3.50479
C          4.56982       -0.25755       -1.73161
N          5.93197       -0.74521       -1.40768
H          3.55354       -1.65444       -0.05341
H          4.54306        0.81880       -1.99930
H          4.20876       -0.79587       -2.62616
H          6.15244       -0.48199       -0.44402
H          6.61885       -0.26480       -1.99165
