48

C          0.62989        1.68290       -0.96658
C          2.05577        2.23617       -0.89326
C          3.03472        1.54113       -1.84551
C          4.45250        2.12963       -1.80834
C          5.44893        1.46667       -2.77351
Al         7.20917        2.40253       -2.92768
S          8.82885        1.32943       -1.41238
O          8.87892       -0.11160       -1.74433
O         10.11092        2.04437       -1.27787
C          8.17301        1.21101        0.45419
C          8.15520        2.54243        1.25045
C          7.38889        2.53072        2.62125
F          6.06378        2.35441        2.45508
F          7.85337        1.55244        3.42828
F          7.57162        3.71452        3.25587
F          9.42966        2.92524        1.52536
F          7.55866        3.50190        0.48232
F          6.89714        0.70981        0.41143
F          8.95918        0.31345        1.10513
C          8.25274        2.05692       -4.61744
C          8.66856        3.15571       -5.39262
C          9.33365        2.99113       -6.61624
C          9.61629        1.71265       -7.10144
C          9.22304        0.60708       -6.34332
C          8.55565        0.77782       -5.12212
C          9.54371       -0.78321       -6.82319
F          9.88893       -0.81986       -8.14583
F         10.58807       -1.33847       -6.14049
F          8.49194       -1.63906       -6.67361
C          9.77757        4.20244       -7.38914
F          8.84045        5.19467       -7.38513
F         10.91796        4.75732       -6.87475
F         10.04662        3.92687       -8.69982
H         -0.04865        2.20738       -0.27741
H          0.60467        0.61259       -0.71044
H          0.21785        1.78600       -1.98256
H          2.43343        2.14980        0.13996
H          2.04185        3.31671       -1.11871
H          2.64622        1.60429       -2.87867
H          3.08087        0.46352       -1.60551
H          4.83421        2.06236       -0.77496
H          4.38555        3.21132       -2.02465
H          5.01766        1.45975       -3.79355
H          5.58939        0.40489       -2.50782
H          7.23136        3.97547       -2.56359
H          8.46687        4.16968       -5.03656
H         10.12620        1.58044       -8.05398
H          8.27738       -0.10964       -4.54843
