35

C          3.45845       -1.89373       -2.56753
C          3.45605       -0.44660       -3.06680
C          3.86847        0.56316       -1.99997
Nb         5.75469        1.08300       -1.13197
S          6.52927       -0.27935        0.81477
O          5.21610       -0.70484        1.36322
O          7.59068       -1.29483        0.72928
C          7.24188        0.81893        2.24723
F          8.22104        1.63965        1.76997
F          6.31070        1.60343        2.84167
F          7.79214        0.04727        3.21527
C          6.65747        2.46224       -2.57022
C          6.49526        3.73184       -1.97925
C          6.91692        4.90686       -2.61441
C          7.49045        4.83324       -3.88666
C          7.63838        3.59171       -4.50746
C          7.24197        2.41412       -3.85598
C          7.45464        1.12621       -4.61075
O          7.64322        1.09776       -5.81822
O          7.43217       -0.01371       -3.89904
H          3.16059       -2.58784       -3.36735
H          2.75975       -2.02280       -1.72698
H          4.45609       -2.18151       -2.20985
H          2.44646       -0.20353       -3.44963
H          4.13208       -0.35857       -3.93321
H          3.31312        0.40564       -1.04922
H          3.64374        1.60835       -2.33208
H          7.36070        0.43274       -1.48616
H          5.78165       -0.65335       -1.25100
H          5.49063        1.96809        0.39330
H          6.03761        3.81676       -0.98271
H          6.79015        5.87312       -2.12064
H          7.81884        5.74146       -4.39585
H          8.06497        3.50699       -5.50840
H          7.38261        0.18067       -2.90565
