38

C          2.09815       -0.28694       -0.39838
C          3.29823       -0.28420        0.55616
C          3.72560        1.12099        1.00423
C          4.90737        1.16335        1.96464
P          5.49386        2.97029        2.47598
C          4.11020        3.22762        3.86436
C          4.76406        3.27600        5.24977
C          4.93782        1.90334        5.90963
C          3.33100        4.50314        3.55482
C          6.88296        2.83808        1.09914
O          7.54626        4.15095        0.92963
C          8.43378        4.26335       -0.03331
F          9.51453        3.40715        0.07181
F          7.93954        4.04875       -1.30575
F          8.94646        5.52716       -0.03094
H          1.81933       -1.30516       -0.71195
H          2.31487        0.29405       -1.30837
H          1.21473        0.16912        0.07543
H          4.15556       -0.78466        0.07303
H          3.06149       -0.89232        1.44667
H          2.85854        1.62598        1.46925
H          3.95667        1.72794        0.10896
H          5.77264        0.62551        1.53506
H          4.66268        0.65281        2.91077
H          4.59579        3.57832        1.44172
H          6.00869        4.31765        2.84672
H          6.43129        2.33593        3.46534
H          3.41528        2.36857        3.82490
H          4.17953        3.92642        5.93001
H          5.75754        3.75729        5.14908
H          3.96428        1.40542        6.05200
H          5.42291        1.98178        6.89607
H          5.56071        1.24966        5.28276
H          4.02414        5.35418        3.42897
H          2.62364        4.76803        4.36210
H          2.76095        4.41162        2.61910
H          6.43895        2.56557        0.12911
H          7.65717        2.11154        1.39448
