20

N          0.97099        0.35143        0.58545
Al         2.77049       -0.06349        0.40762
C          3.79135        1.65813        0.13693
C          3.38077        2.84650        0.77518
C          4.08052        4.05322        0.64227
C          5.23908        4.13077       -0.14228
C          5.66648        2.95992       -0.78868
C          4.95732        1.76242       -0.65120
C          5.99918        5.42754       -0.29475
Cl         3.26520       -1.32765       -1.39624
H          0.49298        0.77518       -0.20922
H          0.36427       -0.39100        0.93209
H          3.23361       -0.92013        1.71281
H          2.47582        2.82976        1.39179
H          3.72224        4.95420        1.15341
H          6.56696        2.99143       -1.41284
H          5.31457        0.87535       -1.18409
H          5.53611        6.23032        0.29694
H          6.02738        5.76101       -1.34499
H          7.04548        5.32791        0.03633
