23

C          0.73177        0.07745        0.21918
C          2.23207       -0.11237       -0.02642
C          2.93811        1.14933       -0.53607
C          4.43664        0.96690       -0.80837
C          5.14176        2.24483       -1.29423
B          6.67760        2.06076       -1.78335
C          7.72408        1.67712       -0.59307
F          9.05328        1.61361       -0.95632
F          7.70574        2.50118        0.52217
F          7.45933        0.40506       -0.07147
Br         7.32751        3.89679       -2.61661
H          0.25413       -0.84307        0.58832
H          0.21210        0.37428       -0.70516
H          0.54788        0.86842        0.96296
H          2.38454       -0.93080       -0.75143
H          2.71819       -0.44661        0.90643
H          2.79953        1.96374        0.19869
H          2.44185        1.49566       -1.46168
H          4.56991        0.16748       -1.56001
H          4.92414        0.59209        0.10736
H          5.07285        3.01570       -0.50460
H          4.57444        2.65043       -2.15101
H          6.81215        1.23534       -2.67101
