33

C          1.15096        0.26780       -0.19139
C          2.63641       -0.08332       -0.32239
C          3.11164       -1.13575        0.68591
C          4.59284       -1.50958        0.55760
C          5.07505       -2.54061        1.58767
C          6.54066       -2.96861        1.46137
B          7.03600       -4.02506        2.61872
C          8.60532       -4.48463        2.41060
C          9.11138       -5.42280        3.51156
C         10.55346       -5.91212        3.47655
O         11.11736       -6.46931        4.42534
N         11.20207       -5.72100        2.28099
H          0.84107        1.03104       -0.92142
H          0.92210        0.65614        0.81336
H          0.51799       -0.61941       -0.34789
H          3.24262        0.83142       -0.20297
H          2.84010       -0.44494       -1.34531
H          2.49717       -2.04801        0.57494
H          2.91641       -0.76995        1.71083
H          5.20823       -0.59472        0.64701
H          4.78237       -1.89746       -0.46086
H          4.43463       -3.44017        1.52336
H          4.90745       -2.13617        2.60351
H          7.17233       -2.05420        1.48064
H          6.68774       -3.40074        0.44779
H          6.31431       -5.04431        2.59844
H          6.91790       -3.49533        3.74344
H          9.25612       -3.58547        2.37367
H          8.70306       -4.98335        1.42264
H          8.47973       -6.32934        3.54299
H          8.97241       -4.95845        4.50141
H         10.77073       -5.10923        1.59515
H         12.19758       -5.90157        2.24672
