36

N          1.88450       -0.93295       -1.23329
C          2.44450       -0.14401       -0.11388
In         3.20766        1.93762       -0.53431
C          1.66722        3.14173       -1.86643
C          1.76070        3.29801       -3.41092
C          1.48019        2.00761       -4.25296
C          1.85920        2.08961       -5.77973
F          1.29361        3.15192       -6.38876
F          3.19091        2.15028       -5.96449
F          1.40916        0.97108       -6.40258
F          2.18916        0.95736       -3.75330
F          0.15526        1.70323       -4.20520
F          0.88440        4.25489       -3.89048
F          3.02409        3.73427       -3.73095
F          0.34373        2.74249       -1.62317
F          1.72269        4.47846       -1.42682
C          5.22630        2.02400       -1.54052
C          6.09303        0.75606       -1.54146
C          5.67684       -0.28628       -2.58553
C          6.54863       -1.53979       -2.56461
N          6.19753       -2.45953       -3.66517
H          1.90893       -1.93672       -1.03552
H          2.41812       -0.79755       -2.09038
H          3.28800       -0.65448        0.39615
H          1.65702       -0.01568        0.64627
H          3.17075        2.88482        0.97238
H          5.75186        2.82426       -0.99534
H          5.10444        2.38964       -2.57278
H          6.08476        0.27922       -0.54390
H          7.15608        1.00828       -1.73807
H          5.71913        0.16027       -3.59325
H          4.62416       -0.57505       -2.41523
H          6.47155       -2.00945       -1.56263
H          7.60572       -1.25245       -2.69801
H          5.20336       -2.69076       -3.60572
H          6.69965       -3.34281       -3.55894
