20

F          3.44386        1.56462       -1.61500
Al         3.06760        0.37861       -0.42275
C          0.98968        0.39938       -0.19951
F          0.25300        0.26161       -1.37297
F          0.50816       -0.63419        0.61480
F          0.46011        1.55132        0.39036
C          3.91352        0.94907        1.33002
C          3.34474        0.31480        2.61236
C          3.48596       -1.21190        2.69969
C          5.44564        0.82467        1.25681
H          3.47116       -1.11105       -0.94962
H          3.67856        2.03053        1.38268
H          2.27524        0.56925        2.69543
H          3.83379        0.75772        3.50802
H          2.98753       -1.70371        1.85125
H          3.03814       -1.60312        3.62730
H          4.54175       -1.52344        2.68597
H          5.77093       -0.21739        1.10173
H          5.94714        1.18285        2.18074
H          5.85288        1.40828        0.41648
