52

C          1.16928        0.05317       -0.11707
Si         3.05402        0.23557       -0.01349
C          3.58746        2.00126       -0.15676
C          4.95821        2.35832       -0.08177
C          5.38686        3.67014       -0.18635
C          4.47653        4.75788       -0.38214
C          3.09288        4.39493       -0.45124
C          2.68264        3.07199       -0.34314
N          5.00871        6.00037       -0.45322
C          4.36652        7.12392       -0.77543
C          4.08636        7.38962       -2.29924
F          5.24251        7.38758       -3.01310
F          3.28551        6.43018       -2.83324
F          3.48006        8.58797       -2.54017
F          3.06469        7.37076       -0.16231
F          5.11098        8.25700       -0.37929
C          3.61557       -0.46008        1.68378
C          3.40142       -1.96769        1.86794
C          3.79730       -2.46144        3.24853
C          3.54330       -3.98047        3.56351
C          4.20145       -5.10087        2.67215
C          5.77328       -5.23901        2.54238
C          6.61372       -5.46478        3.85389
C          8.08425       -5.97380        3.59994
F          8.72248       -5.19372        2.70937
F          8.75577       -5.93047        4.76877
F          8.09578       -7.24367        3.15669
F          6.70753       -4.30120        4.53624
F          6.00539       -6.39398        4.63784
F          5.96904       -6.32923        1.74161
F          6.25591       -4.15087        1.89597
F          3.73124       -6.29167        3.13651
F          3.75014       -4.94930        1.39380
F          3.90642       -4.23611        4.85378
F          2.19715       -4.20015        3.45848
F          5.12587       -2.21548        3.50779
F          3.08065       -1.79960        4.22250
C          3.83581       -0.85833       -1.35740
H          0.66981        0.62702        0.67661
H          0.85739       -0.99778       -0.02294
H          0.79339        0.42321       -1.08168
H          5.71649        1.57947        0.06137
H          6.44882        3.91648       -0.12362
H          2.34699        5.17706       -0.58273
H          1.60907        2.86527       -0.40571
H          3.07488        0.10274        2.45998
H          4.68080       -0.21259        1.81169
H          3.98702       -2.53243        1.12929
H          2.34620       -2.24451        1.71976
H          3.52930       -0.50141       -2.35114
H          3.54281       -1.91649       -1.27452
H          4.93386       -0.80425       -1.31736
