12

C          1.24788       -0.10684       -0.22203
S          2.97585       -0.10752        0.28917
O          3.11139        0.91146        1.32992
O          3.28937       -1.48573        0.66500
N          3.61380        0.31724       -1.15032
S          5.10147        0.80994       -1.31700
O          6.08728        0.25797       -0.40953
O          5.41632        0.89738       -2.72873
F          5.03118        2.39988       -0.86080
H          0.66835       -0.41092        0.65785
H          1.12266       -0.82496       -1.03893
H          0.97500        0.90376       -0.54238
