16

I          3.78011       -0.88590       -1.79356
N          3.14702       -0.09228        0.03383
C          3.87609        0.88678        0.61301
C          5.07816        1.48800        0.12334
C          5.73438        2.49355        0.81685
C          5.24803        2.97465        2.04464
C          4.08004        2.40912        2.55184
C          3.38247        1.39331        1.88863
C          2.14279        0.87369        2.54063
O          1.72331        1.29205        3.62127
O          1.48506       -0.09640        1.87990
H          5.47326        1.12988       -0.82894
H          6.64944        2.91602        0.39082
H          5.76810        3.76610        2.58643
H          3.65364        2.73903        3.50222
H          2.02519       -0.29118        0.99708
