42

N          7.95521       -5.79950        2.47912
C          6.80115       -6.29698        1.86335
N          5.64126       -6.48748        2.42166
N          6.99725       -6.63180        0.54666
C          5.95742       -7.25748       -0.24975
C          6.36571       -7.38162       -1.72316
C          6.32001       -6.09249       -2.56568
C          7.27858       -4.95132       -2.15592
Al         9.21795       -5.41752       -2.00007
S         10.28841       -3.80073       -0.46980
O          9.75541       -3.87718        0.91300
O         11.75486       -3.85908       -0.62852
C          9.93485       -1.93405       -1.01458
C          8.75538       -1.21154       -0.32010
F          9.01715       -0.99380        0.98176
F          8.52154        0.00281       -0.89878
F          7.62159       -1.93331       -0.42637
F         11.05474       -1.19354       -0.82061
F          9.66910       -1.96733       -2.36173
C         10.40033       -5.40798       -3.63157
C          9.96094       -4.52583       -4.80502
C         10.81837       -4.55941       -6.07021
O         10.49469       -4.07181       -7.13339
O         12.02623       -5.18050       -5.93965
H          7.76397       -5.33555        3.36065
H          8.57507       -5.23636        1.88644
H          5.65002       -6.10980        3.37332
H          7.95756       -6.73865        0.22433
H          5.03621       -6.66050       -0.14863
H          5.71145       -8.25928        0.15214
H          5.68530       -8.11576       -2.18553
H          7.37340       -7.83169       -1.77599
H          5.27508       -5.72747       -2.56149
H          6.52434       -6.38011       -3.61230
H          6.96393       -4.54377       -1.18233
H          7.16174       -4.12137       -2.87460
H          9.60115       -6.63630       -0.99291
H         10.47899       -6.46530       -3.94487
H         11.39183       -5.10704       -3.24373
H          9.92465       -3.46568       -4.50440
H          8.93675       -4.75991       -5.13353
H         12.05910       -5.51242       -5.01528
