22

N          0.80884       -0.08153        0.17446
B          2.24199       -0.23466        0.55047
S          3.25135       -1.49643       -0.70940
O          4.68561       -1.64692       -0.39005
O          2.47993       -2.72729       -0.97294
C          3.32219       -0.69991       -2.48119
F          4.01835        0.47317       -2.48466
F          3.92575       -1.52836       -3.36708
F          2.07849       -0.42000       -2.96786
C          3.08559        1.15466        0.61749
C          2.66677        1.98373        1.83868
C          3.34173        3.33333        2.03893
O          3.05561        4.12831        2.91218
O          4.34298        3.63208        1.15538
H          0.27821       -0.94933        0.15137
H          0.62944        0.42284       -0.69244
H          2.41704       -0.94911        1.53243
H          2.91384        1.74197       -0.30541
H          4.16286        0.91341        0.66524
H          2.84283        1.41267        2.76559
H          1.58190        2.17153        1.82650
H          4.40627        2.87129        0.54007
