79

C          0.82440       -2.89385       -2.65544
O          2.10695       -2.50268       -2.21972
C          2.38267       -1.13580       -2.51302
C          3.82175       -0.80672       -2.17180
O          4.68417       -1.38667       -3.12165
C          6.07814       -1.06670       -2.85080
C          7.01565       -1.71485       -3.81612
As         8.97118       -0.94720       -3.45018
C          9.45327       -2.49404       -2.09092
C          9.32118       -3.87596       -2.27442
C          9.63446       -4.77762       -1.24827
C         10.09732       -4.32685        0.00568
C         10.24628       -2.93330        0.17746
C          9.92852       -2.04663       -0.85434
Si        10.49104       -5.54712        1.36677
C         11.99252       -6.61585        0.85586
C         13.23907       -5.78135        0.53437
C         14.42029       -6.62840        0.09774
C         15.71063       -5.86297       -0.37144
C         16.45521       -4.87915        0.61009
C         17.11289       -5.39106        1.95742
C         18.20432       -6.52297        1.87301
C         19.08291       -6.67672        3.17288
F         18.31188       -6.81755        4.26749
F         19.84534       -7.78192        3.04125
F         19.89932       -5.62327        3.34618
F         17.60026       -7.71593        1.66121
F         19.06080       -6.26775        0.85002
F         17.70936       -4.28974        2.50314
F         16.13212       -5.79624        2.80167
F         17.44526       -4.28918       -0.11320
F         15.57905       -3.90646        0.98853
F         16.63598       -6.77457       -0.79424
F         15.36074       -5.09372       -1.44091
F         14.80760       -7.49936        1.09609
F         14.08372       -7.41004       -0.98446
C         10.91344       -4.66257        2.98798
C          9.05176       -6.73814        1.66912
C          9.76078       -1.96974       -5.10077
C          9.88395       -1.06854       -6.32719
C         11.03608       -0.06431       -6.17447
C         10.02905       -1.86199       -7.63607
H          0.70921       -3.96025       -2.41944
H          0.70240       -2.75377       -3.74764
H          0.02112       -2.32459       -2.14365
H          1.70334       -0.48086       -1.92685
H          2.20763       -0.93638       -3.58880
H          4.05045       -1.16804       -1.14646
H          3.93032        0.30084       -2.15678
H          6.31247       -1.37927       -1.81342
H          6.19087        0.03795       -2.88456
H          6.79644       -1.42804       -4.85495
H          7.01502       -2.80881       -3.71925
H          8.42007       -0.15351       -2.15215
H         10.44168       -0.33499       -3.12046
H          8.60070        0.32686       -4.38134
H          8.95943       -4.26992       -3.22926
H          9.50513       -5.85128       -1.42962
H         10.60431       -2.53690        1.13373
H         10.03419       -0.96444       -0.70029
H         11.69918       -7.20080       -0.02970
H         12.21200       -7.33970        1.65720
H         13.55534       -5.19893        1.41144
H         13.02534       -5.06022       -0.26917
H         11.77169       -3.98401        2.88049
H         11.15638       -5.39132        3.77542
H         10.06261       -4.06049        3.33720
H          8.77753       -7.26589        0.74461
H          8.16312       -6.18650        2.00799
H          9.29982       -7.49177        2.43120
H          9.10665       -2.83115       -5.30870
H         10.74392       -2.33982       -4.76675
H          8.94920       -0.47656       -6.39756
H         12.00184       -0.59369       -6.11474
H         10.92196        0.52528       -5.25506
H         11.08164        0.62875       -7.03060
H         10.95489       -2.46028       -7.63148
H         10.06854       -1.19103       -8.51196
H          9.18583       -2.55489       -7.77576
