37

N          1.17189       -4.61243       -1.86034
C          2.57102       -4.76710       -1.68648
N          3.19778       -5.87884       -1.48740
N          3.23847       -3.56824       -1.77909
C          4.70069       -3.49819       -1.79424
C          5.15015       -2.03886       -1.77723
C          6.67667       -1.85076       -1.85174
C          7.34584       -2.29350       -3.16369
Al         9.29601       -1.79315       -3.27321
C         10.51104       -2.51303       -1.78710
C         10.24800       -1.86722       -0.47697
O         10.00980       -2.42796        0.58318
O         10.25483       -0.48517       -0.50093
C         10.04975       -2.35206       -5.08715
O         11.47297       -1.91146       -5.18718
C         12.10496       -2.16022       -6.31953
F         11.54222       -1.56672       -7.42985
F         13.37907       -1.69252       -6.23203
F         12.19709       -3.49793       -6.64090
H          0.65626       -5.43942       -1.57344
H          0.79963       -3.78212       -1.40183
H          2.53557       -6.64497       -1.33586
H          2.77604       -2.86301       -2.34555
H          5.10695       -4.02210       -2.67544
H          5.07367       -4.03301       -0.90910
H          4.75497       -1.56100       -0.86359
H          4.68993       -1.51249       -2.63624
H          7.13832       -2.37523       -0.99721
H          6.88425       -0.78136       -1.67769
H          6.81909       -1.82266       -4.01722
H          7.22828       -3.38259       -3.30721
H          9.50057       -0.15452       -3.07356
H         11.48976       -2.17665       -2.17018
H         10.53076       -3.60306       -1.66574
H         10.17119       -0.20868       -1.44965
H          9.50945       -1.88898       -5.92947
H         10.03959       -3.44293       -5.24988
