38

Cl         4.31083       -2.21118        0.12262
Al         3.31429       -0.21862        0.23847
C          4.17807        0.93259       -1.19961
C          5.30392        0.52746       -1.94893
C          5.89331        1.34545       -2.91670
C          5.38166        2.62926       -3.20175
C          4.25470        3.04762       -2.46645
C          3.67889        2.21912       -1.49691
Si         6.17918        3.69329       -4.51504
C          6.01998        2.81184       -6.20439
C          6.70850        3.52817       -7.37045
C          6.57801        2.82114       -8.70244
F          5.28144        2.67949       -9.09807
F          7.21357        3.51325       -9.70135
F          7.12449        1.57310       -8.69136
C          5.34432        5.38954       -4.63985
C          8.02371        3.94580       -4.15504
C          1.32610       -0.30713       -0.10930
N          0.93495       -0.58631       -1.51321
H          3.58629        0.40556        1.72092
H          5.72806       -0.46445       -1.76287
H          6.76996        0.97390       -3.46093
H          3.81910        4.03518       -2.65158
H          2.80615        2.59654       -0.95118
H          4.94659        2.68640       -6.41590
H          6.42962        1.79583       -6.09085
H          7.78814        3.64203       -7.19089
H          6.29872        4.53851       -7.52182
H          4.28037        5.29618       -4.90049
H          5.82523        6.01799       -5.40404
H          5.40733        5.92704       -3.68294
H          8.54471        2.98070       -4.07677
H          8.15259        4.46561       -3.19499
H          8.52659        4.54261       -4.93084
H          0.91393        0.65680        0.26799
H          0.88649       -1.08551        0.54100
H          1.56255       -0.09783       -2.15380
H         -0.00521       -0.24084       -1.71979
