34

N          0.88871       -4.41212        2.38943
C          2.36583       -4.47063        2.36705
C          2.97880       -3.07287        2.36584
C          4.51760       -3.08420        2.34416
C          5.17875       -1.70917        2.30197
Nb         7.37854       -1.50873        2.41696
C          8.65170       -0.68991        0.68387
C          9.53204       -1.60586       -0.17349
C         10.82573       -2.05789        0.50763
C          7.60980        0.00964       -0.20119
O          7.73543       -2.14330        4.24339
H          0.49835       -5.34903        2.27040
H          0.56708       -3.86937        1.58461
H          2.76559       -5.03432        1.49986
H          2.69121       -5.01213        3.27110
H          2.61513       -2.51784        3.24670
H          2.61388       -2.52008        1.47953
H          4.86273       -3.66518        1.47177
H          4.87230       -3.63943        3.23203
H          4.85838       -1.10580        3.18271
H          4.85572       -1.15277        1.40138
H          7.02539       -2.56254        1.01176
H          7.51956        0.31267        2.59889
H          8.62652       -2.73049        2.10154
H          9.30508        0.09184        1.11973
H          9.80756       -1.08444       -1.11955
H          8.94778       -2.49421       -0.46985
H         11.44721       -1.19023        0.78738
H         11.43075       -2.70639       -0.14740
H         10.59031       -2.61428        1.42731
H          6.93008       -0.72572       -0.66382
H          8.08147        0.57265       -1.03511
H          6.99500        0.72670        0.36644
H          8.46153       -2.76972        4.36430
