56

F          6.45574        7.00782        1.86064
C          6.49701        6.01541        0.92775
C          5.15461        5.34795        0.72278
C          4.58013        4.68654        1.97968
Si         2.88888        3.82250        1.73642
C          2.36191        3.01124        3.32614
C          1.25232        3.44745        4.08717
C          0.86914        2.83624        5.27307
C          1.57368        1.71891        5.80809
C          2.69749        1.28908        5.04051
C          3.06640        1.90705        3.85072
C          1.23337        1.02058        7.03244
S         -0.30572        1.10815        7.71529
O         -1.34220        1.52877        6.77267
O         -0.56181       -0.02009        8.61392
C         -0.37496        2.57733        8.98301
C         -1.78552        3.07297        9.41343
F         -2.42917        3.69095        8.40548
F         -2.54960        2.05663        9.85934
F         -1.68041        3.97803       10.43487
F          0.28429        2.21634       10.12982
F          0.28232        3.66255        8.45934
C          2.19652        0.03686        7.66916
C          3.53698        0.61219        8.18130
C          3.34823        1.68954        9.25440
C          4.65386        2.16566        9.84775
C          4.51667        3.32960       10.87725
F          3.71484        2.97000       11.90623
F          5.72127        3.67261       11.39223
F          3.98819        4.42713       10.29355
F          5.30551        1.14408       10.51636
F          5.52485        2.61721        8.88000
C          1.63733        5.12831        1.17386
C          3.09061        2.53783        0.35396
F          6.95382        6.59207       -0.22955
F          7.46285        5.13983        1.32725
H          5.29966        4.61600       -0.08594
H          4.48245        6.12795        0.33452
H          4.45900        5.43404        2.77915
H          5.28764        3.93673        2.36740
H          0.66165        4.30167        3.74292
H         -0.00181        3.21777        5.80073
H          3.28001        0.43035        5.37470
H          3.93293        1.50484        3.31451
H          2.44126       -0.76900        6.95087
H          1.68110       -0.46385        8.49979
H          4.11317        1.04059        7.34915
H          4.13470       -0.21686        8.59259
H          2.72637        1.31661       10.08088
H          2.82478        2.55811        8.82978
H          1.53135        5.93224        1.91633
H          0.64490        4.67966        1.02496
H          1.93924        5.58806        0.22119
H          3.79987        1.74980        0.64519
H          3.44767        2.98359       -0.58664
H          2.12621        2.05151        0.15046
