11

F          4.15307        1.30330       -0.80189
Ga         2.91348        0.09496       -0.29623
S          4.05472       -0.81127        1.70385
O          5.07724       -1.78045        1.26340
O          4.41591        0.14615        2.76136
C          2.76419       -1.95931        2.58216
F          1.83491       -1.26054        3.27017
F          2.11162       -2.72285        1.66393
F          3.38412       -2.79407        3.45037
Cl         1.14862        1.18889        0.48334
H          2.62693       -1.05123       -1.30792
