34

C          1.16338        0.55281        0.00481
C          2.67589        0.38168       -0.15505
C          3.06947       -0.46923       -1.36641
C          4.58276       -0.64229       -1.52925
C          4.99228       -1.41675       -2.79162
C          6.49132       -1.56592       -2.95710
As         7.01365       -2.47970       -4.75140
C          6.89115       -0.59967       -5.86574
F          6.66557        0.55719       -5.13031
F          8.01992       -0.33484       -6.60630
F          5.86090       -0.63679       -6.78689
C          9.11350       -2.15405       -4.20776
C          9.97220       -3.20130       -4.78958
O         10.91296       -3.04081       -5.55396
O          9.61924       -4.49210       -4.43915
H          0.91220        1.18376        0.87029
H          0.66667       -0.41947        0.14504
H          0.72198        1.02029       -0.88854
H          3.09546       -0.07090        0.75994
H          3.15094        1.37358       -0.24521
H          2.65672       -0.00870       -2.28153
H          2.59169       -1.46229       -1.28647
H          4.99125       -1.15053       -0.63734
H          5.06025        0.35308       -1.55503
H          4.57456       -0.90110       -3.67516
H          4.51800       -2.41486       -2.77846
H          6.92720       -2.22828       -2.19308
H          7.00440       -0.59459       -2.93094
H          7.13594       -3.94348       -3.99395
H          7.47250       -3.11902       -6.11789
H          5.48274       -2.73429       -5.10231
H          9.04146       -2.24593       -3.11723
H          9.43684       -1.15319       -4.50902
H          8.70241       -4.44850       -4.06386
