31

C          2.90602        1.46680       -0.62655
C          2.61481        0.01796       -0.21612
C          2.39345       -0.86187       -1.47446
C          1.94751       -2.29668       -1.28660
S          0.46635       -2.55884       -0.63636
O         -0.41951       -1.39426       -0.71360
O         -0.07050       -3.90375       -0.85190
F          0.63222       -2.62287        1.12676
C          2.78182       -3.46158       -1.75197
C          3.96810       -3.92719       -0.86310
C          3.47685       -4.53858        0.45232
C          4.85776       -4.91432       -1.62968
C          3.71460       -0.52334        0.69980
H          2.09883        1.86918       -1.25781
H          3.84481        1.53170       -1.20405
H          3.01082        2.12446        0.25088
H          1.66626        0.00468        0.34572
H          3.34497       -0.88761       -2.04092
H          1.67147       -0.31437       -2.11205
H          3.20377       -3.20485       -2.74665
H          2.12438       -4.33251       -1.91675
H          4.57791       -3.03706       -0.62506
H          2.92001       -5.46976        0.25698
H          2.78954       -3.85862        0.97374
H          4.31717       -4.78006        1.12376
H          4.28576       -5.81524       -1.90827
H          5.71901       -5.24227       -1.02582
H          5.24484       -4.46762       -2.55942
H          4.68931       -0.53693        0.18127
H          3.47980       -1.54711        1.01851
H          3.82514        0.09873        1.60228
