32

C          5.96524       -1.82025       -1.60969
C          5.09963       -0.70478       -1.01557
C          5.62961       -0.15675        0.31869
C          4.78810        0.97541        0.92937
Al         5.48604        1.62952        2.69384
S          3.83169        3.31431        3.39803
O          2.42700        2.91873        3.27021
O          4.19857        4.08143        4.59107
F          4.00988        4.47428        2.13859
C          7.23927        2.60550        2.68913
C          7.51884        3.52768        1.49458
C          8.89080        4.21813        1.52605
C          9.14959        5.12139        0.31638
H          5.56177       -2.19331       -2.56360
H          6.03617       -2.67631       -0.92043
H          6.99137       -1.46701       -1.79755
H          4.06990       -1.07184       -0.86413
H          5.01966        0.12830       -1.73500
H          6.66964        0.18640        0.16031
H          5.70546       -0.99910        1.03205
H          3.74922        0.62776        1.07051
H          4.72719        1.81593        0.21510
H          5.31560        0.57917        3.92202
H          8.03543        1.83727        2.75503
H          7.31515        3.18015        3.62991
H          6.73500        4.30246        1.43293
H          7.44036        2.95564        0.55116
H          9.67935        3.44732        1.59041
H          8.96984        4.80890        2.45494
H          9.10240        4.54691       -0.62235
H         10.13797        5.60419        0.36268
H          8.39110        5.91638        0.24975
