34

F          0.75672       -1.94951        1.10375
C          2.11739       -2.03787        1.12558
C          2.67708       -2.77552       -0.07074
C          2.34839       -2.13413       -1.42284
Si         3.07971       -3.03484       -2.95172
C          2.62310       -2.13769       -4.50391
C          3.16800       -0.86507       -4.81501
C          2.81651       -0.17211       -5.96096
C          1.87939       -0.69081       -6.91091
C          1.33143       -1.97519       -6.59420
C          1.69565       -2.65510       -5.43915
N          1.60735        0.06859       -7.99964
C          0.74547       -0.33407       -8.93796
F          1.05221       -1.54149       -9.63039
F         -0.59996       -0.56671       -8.53209
F          0.61850        0.59572       -9.95504
C          4.96308       -3.10320       -2.69982
C          2.41070       -4.81113       -2.95260
F          2.59094       -0.76279        1.22828
F          2.44238       -2.66451        2.30376
H          2.28358       -3.80188       -0.00718
H          3.76411       -2.83767        0.09224
H          2.71284       -1.09457       -1.44667
H          1.25722       -2.07899       -1.56169
H          3.89433       -0.40370       -4.13569
H          3.25191        0.80584       -6.17755
H          0.61292       -2.42761       -7.27723
H          1.23933       -3.63427       -5.25881
H          5.39523       -2.09180       -2.68895
H          5.43258       -3.64983       -3.53030
H          5.24928       -3.60402       -1.76207
H          1.31291       -4.82629       -3.01363
H          2.70524       -5.35677       -2.04361
H          2.79864       -5.36935       -3.81652
