44

C          7.15223        2.56086       -0.11482
S          6.07251        1.75756       -1.33176
C          6.23407        0.02118       -0.75928
C          5.32087       -0.92321       -1.54140
Ga         5.73738       -1.16886       -3.51316
C          4.38873       -2.36292       -4.50731
C          3.54065       -1.70267       -5.41943
C          2.60581       -2.37223       -6.21569
C          2.49209       -3.76357       -6.13877
C          3.33065       -4.46160       -5.27050
C          4.26151       -3.77136       -4.46481
C          5.12098       -4.58014       -3.53972
O          5.39753       -4.30373       -2.39441
O          5.60479       -5.75824       -4.07871
C          7.63115       -1.91107       -3.75538
C          8.34867       -2.56551       -2.73695
C          9.67130       -2.99618       -2.92012
C         10.31856       -2.81108       -4.14555
C          9.62167       -2.17566       -5.17548
C          8.30779       -1.72402       -4.97320
C         10.26914       -2.02253       -6.52236
F         11.63588       -2.04418       -6.46458
F          9.91672       -3.03156       -7.38614
F          9.92624       -0.86052       -7.14655
C         10.44078       -3.61135       -1.78575
F          9.64493       -4.17552       -0.84119
F         11.30795       -4.58650       -2.20331
F         11.21781       -2.68614       -1.12746
H          7.10521        3.64247       -0.29748
H          8.19541        2.23110       -0.22550
H          6.81750        2.36117        0.91403
H          6.00347        0.03150        0.32247
H          7.29325       -0.26550       -0.86964
H          4.27268       -0.60175       -1.42967
H          5.38586       -1.92309       -1.08404
H          5.67419        0.17767       -4.38825
H          3.63297       -0.61612       -5.51116
H          1.96770       -1.81003       -6.90279
H          1.75916       -4.29944       -6.74518
H          3.23118       -5.54850       -5.18783
H          5.38418       -5.75509       -5.02731
H          7.86635       -2.75672       -1.77616
H         11.34205       -3.15272       -4.29287
H          7.80218       -1.20097       -5.78954
