37

C          5.89755        5.21914        1.90996
C          5.61038        4.32302        3.11762
C          5.39933        2.85365        2.74175
C          5.13225        1.95358        3.95278
C          4.96922        0.46730        3.60813
C          6.25786       -0.26155        3.17250
C          7.33720       -0.45975        4.23306
S          7.29585       -1.86139        5.20073
O          6.14211       -2.66366        4.79823
O          8.58962       -2.49332        5.41040
C          6.87348       -1.45110        7.04455
C          5.58169       -0.64609        7.36725
F          4.48110       -1.22446        6.84513
F          5.40141       -0.58067        8.71802
F          5.66223        0.61881        6.91195
F          6.73995       -2.66388        7.66947
F          7.90620       -0.79074        7.62422
S          8.72841        0.51289        4.21212
O          8.42233        1.78936        3.56784
O          9.48790        0.47896        5.45061
C          9.95290       -0.22240        2.94856
F          9.34911       -0.39741        1.73994
F         10.99522        0.62887        2.76010
F         10.45741       -1.40959        3.32963
H          6.04323        6.26901        2.20514
H          5.06998        5.18778        1.18339
H          6.80816        4.88962        1.38736
H          4.72075        4.69752        3.65479
H          6.45018        4.38543        3.82882
H          6.29832        2.49824        2.21437
H          4.55715        2.77381        2.02868
H          4.22030        2.30476        4.46728
H          5.95866        2.06939        4.67101
H          4.23409        0.36722        2.78802
H          4.53701       -0.06861        4.46535
H          6.71994        0.28104        2.33501
H          5.97734       -1.24929        2.78002
