36

C          0.85029        1.51947        3.75259
O          2.21635        1.31580        4.03644
C          3.06090        1.88770        3.03919
C          4.51501        1.56823        3.32292
O          4.77626        0.21614        3.01666
C          6.19825       -0.10075        2.97882
C          6.92107       -0.11348        4.31314
Al         8.82505       -0.76152        4.15334
S         10.00321        1.06590        2.96933
O         11.47360        1.00490        3.11070
O          9.45453        1.26962        1.61049
C          9.59646        2.77656        3.80246
F          9.86885        2.76327        5.13722
F         10.32684        3.77023        3.24574
F          8.28349        3.10681        3.66803
C          9.78750       -1.18621        5.85915
C          9.73402       -0.19510        7.01259
N         10.40632       -0.72278        8.22950
H          0.27394        1.06139        4.56725
H          0.55402        1.04822        2.79440
H          0.59576        2.59780        3.69704
H          2.92557        2.98972        3.02478
H          2.78588        1.49406        2.04038
H          4.74101        1.80404        4.38142
H          5.14167        2.23790        2.69683
H          6.68738        0.60311        2.27884
H          6.22422       -1.09789        2.51558
H          6.40423       -0.79869        5.00989
H          6.90820        0.88299        4.78419
H          9.06167       -1.87671        3.00256
H         10.83830       -1.42614        5.62504
H          9.32982       -2.14371        6.18596
H          8.68011        0.08769        7.21083
H         10.25893        0.73152        6.73455
H          9.97110       -1.61447        8.47848
H         10.23964       -0.09561        9.02115
