26

F          4.98854        3.14441        1.67062
C          4.55089        1.86835        1.88060
S          2.68881        1.82834        1.26175
O          2.47037        0.48305        0.72100
O          1.95924        2.25489        2.46071
Al         2.62930        3.54032       -0.42975
S          0.68831        2.81548       -1.63840
O          1.18725        1.76396       -2.53701
O         -0.52387        2.58598       -0.84820
C          0.20100        4.22947       -2.85963
F         -0.52036        5.18788       -2.25551
F          1.31785        4.78783       -3.38042
F         -0.53094        3.71248       -3.86917
S          2.38799        5.71605        0.52355
O          3.57834        6.13384        1.27513
O          1.90938        6.55557       -0.58789
C          0.95500        5.80954        1.80727
F         -0.08979        5.07511        1.37348
F          1.33870        5.35497        3.01146
F          0.55991        7.09453        1.93861
C          5.52548        0.89345        1.17117
F          5.46899        1.05803       -0.16571
F          6.80727        1.12919        1.56390
F          5.23434       -0.38432        1.47087
F          4.57057        1.60867        3.20845
H          3.92240        3.62024       -1.33772
