32

F          4.14805        1.13035        2.74444
C          3.01874        1.26703        1.99470
C          2.55559       -0.13866        1.45075
B          2.18910       -1.48137        2.35727
C          3.23947       -1.78081        3.58513
C          3.24971       -3.20107        4.26065
C          4.58477       -3.57020        5.02457
C          4.44379       -4.76670        6.03867
F          3.86484       -5.83958        5.46627
F          5.68197       -5.13384        6.45584
F          3.73483       -4.42044        7.12826
F          5.54319       -3.93768        4.13112
F          5.04808       -2.51485        5.74761
F          2.24031       -3.28518        5.17295
F          3.07584       -4.16864        3.31901
F          4.53336       -1.63881        3.07564
F          3.14583       -0.87709        4.63421
S          0.30027       -1.88120        2.66792
O         -0.50725       -1.52827        1.50188
O          0.21251       -3.24382        3.19427
C         -0.54519       -0.86852        4.06789
F          0.20483       -0.80656        5.18980
F         -0.83318        0.39303        3.67882
F         -1.71241       -1.47842        4.37643
F          1.53321        0.15744        0.57023
F          3.64490       -0.49857        0.64999
C          2.01750        2.10990        2.84744
F          1.72478        1.49764        4.00715
F          2.58899        3.30698        3.14765
F          0.87580        2.35909        2.18022
F          3.33445        2.06063        0.91892
H          2.28474       -2.37902        1.54747
