29

C          0.75892        0.50373        0.06558
C          2.17153        0.47179       -0.52896
C          2.87690       -0.90547       -0.38132
B          2.98389       -1.81577       -1.74099
C          3.75991       -1.14064       -3.01411
C          5.24577       -1.54093       -3.17728
C          5.38441       -2.98827       -3.66920
C          5.99866       -0.58362       -4.11544
Br         0.94513       -2.28259       -2.41203
C          4.28184       -0.71691        0.22732
H          0.27305        1.48373       -0.07747
H          0.78352        0.29731        1.14851
H          0.13185       -0.26334       -0.40961
H          2.77650        1.26231       -0.04463
H          2.11250        0.75351       -1.59403
H          2.29534       -1.49086        0.35565
H          3.40292       -2.93517       -1.46531
H          3.70695       -0.03541       -2.95036
H          3.24024       -1.39486       -3.95500
H          5.73654       -1.48386       -2.18843
H          4.95243       -3.09395       -4.67890
H          4.84324       -3.67374       -3.00389
H          6.43981       -3.30457       -3.71964
H          5.54349       -0.58812       -5.12031
H          7.06109       -0.86117       -4.22922
H          5.95630        0.45093       -3.74121
H          4.92341       -0.09984       -0.42445
H          4.79361       -1.68240        0.36587
H          4.24313       -0.20950        1.20917
