19

F          2.69393       -1.14887       -1.03047
N          2.05237        0.10452       -0.56551
C          2.89428        1.10326       -0.82955
C          4.19306        1.02263       -1.44372
C          4.95517        2.17061       -1.63886
C          4.51862        3.45113       -1.26416
C          3.24053        3.53480       -0.66754
C          2.44718        2.42194       -0.45188
C          2.75044        4.89254       -0.26416
F          2.66906        5.76323       -1.32706
F          1.51455        4.89048        0.31176
F          3.58606        5.51038        0.63713
C          6.27772        2.05757       -2.33993
F          6.81683        0.80493       -2.30149
F          6.19708        2.38539       -3.67612
F          7.23112        2.89749       -1.82154
H          4.56406        0.04827       -1.74764
H          5.13364        4.33411       -1.41921
H          1.46652        2.51973        0.01219
