24

C          0.81248       -0.07967        0.02612
C          2.34040       -0.16253        0.07598
C          2.94385        0.43060        1.35305
C          4.47124        0.34013        1.41656
C          5.08011        0.92060        2.69445
C          6.60927        0.81099        2.74868
N          7.10819        1.36835        3.97560
C          8.38862        1.30114        4.17154
F          9.29034        1.94234        3.18526
F          8.81512        1.85170        5.37088
F          9.03305       -0.03399        4.18495
H          0.40667       -0.51490       -0.89937
H          0.47032        0.96531        0.08165
H          0.35976       -0.61640        0.87390
H          2.76707        0.35577       -0.79994
H          2.65546       -1.21627       -0.01543
H          2.51137       -0.08340        2.23048
H          2.63559        1.48793        1.44311
H          4.90051        0.85661        0.53874
H          4.77302       -0.71868        1.31851
H          4.66345        0.40808        3.57903
H          4.80223        1.98407        2.79941
H          7.01979        1.32247        1.84506
H          6.87775       -0.26525        2.62414
