38

N          1.59126        0.04138        0.27638
Sb         3.70794        0.21581       -0.08432
C          4.00404       -2.02865        0.02204
C          3.15983       -2.97129       -0.58199
C          3.44538       -4.33779       -0.52800
C          4.59805       -4.78371        0.14243
C          5.43856       -3.85220        0.77076
C          5.13302       -2.49201        0.70246
C          4.93354       -6.24510        0.18829
C          5.27516       -6.96847       -1.17563
C          6.31408       -6.33139       -2.17648
C          7.81539       -6.06826       -1.75229
C          8.69816       -7.28436       -1.28442
C         10.24864       -6.99249       -1.32282
F         10.54300       -5.81593       -0.74131
F         10.88722       -7.97265       -0.64742
F         10.71391       -6.98497       -2.58461
F          8.38138       -7.60635       -0.00788
F          8.48341       -8.36635       -2.07813
F          8.41427       -5.54463       -2.86403
F          7.83819       -5.13127       -0.77630
F          6.35119       -7.15868       -3.26444
F          5.83912       -5.12986       -2.58163
F          5.70651       -8.23854       -0.90307
F          4.12285       -7.07422       -1.89881
F          6.00062       -6.49577        1.02054
F          3.87344       -6.98959        0.68779
S          3.22865       -0.21920       -2.71237
H          1.45620       -0.81073        0.83420
H          1.18685       -0.18633       -0.64021
H          3.45579        1.93180       -0.37584
H          5.45073        0.31923       -0.41120
H          3.96916        0.36577        1.65774
H          2.27791       -2.62835       -1.12964
H          2.78047       -5.05681       -1.01026
H          6.32658       -4.19282        1.30287
H          5.80577       -1.77085        1.18063
H          2.58474        0.96516       -2.82787
