18

C          1.35649       -0.46388        0.54822
N          2.68973       -0.08546        0.16458
C          2.97201        0.73019       -0.78519
C          2.39689        0.74568       -2.25181
C          0.88400        1.06648       -2.56683
C          0.23268        2.43134       -2.13628
F          0.96442        3.49290       -2.50123
F         -0.96990        2.53036       -2.79473
F         -0.04691        2.48773       -0.82976
F          0.75938        1.02639       -3.93817
F          0.07346        0.08622       -2.07396
F          3.10760        1.58926       -3.06804
F          2.56517       -0.52840       -2.78680
F          2.60346        2.33498       -0.50633
F          4.35877        0.85228       -0.99068
H          1.40408       -0.97233        1.52642
H          0.86882       -1.17834       -0.14667
H          0.66566        0.39291        0.67217
