27

O          3.45159       -1.35822       -0.48544
Ga         2.70445        0.29734        0.01338
C          2.90465        1.47497       -1.73752
C          2.19532        2.84054       -1.77744
F          0.85303        2.70093       -1.63339
F          2.63447        3.63771       -0.76309
F          2.39210        3.54529       -2.93603
F          4.24488        1.76293       -2.03843
F          2.41922        0.78769       -2.86284
C          3.88267        1.01910        1.48480
C          5.38050        0.83196        1.22819
C          6.23392        1.34596        2.40450
C          7.72506        1.15758        2.23033
C          8.59347        1.70154        3.40606
F          8.41227        3.03524        3.56463
F          8.26161        1.09763        4.57371
F          9.91280        1.48873        3.19509
F          8.05795       -0.17513        2.10585
F          8.19149        1.79212        1.09882
H          2.96224       -1.71290       -1.24113
H          1.14429        0.19832        0.34345
H          3.59495        0.50376        2.41842
H          3.65019        2.08758        1.63653
H          5.67745        1.36183        0.31082
H          5.59828       -0.23212        1.05288
H          5.94328        0.83069        3.33343
H          6.05094        2.42068        2.56066
