52

S          7.51280        1.26110        1.93866
C          6.37704        1.64450        0.53691
C          5.99298        0.33779       -0.15882
C          4.98912        0.55085       -1.30241
Ga         5.49397        1.93149       -2.75096
C          4.09220        1.92227       -4.24587
C          2.73744        2.41461       -3.72704
C          1.64595        2.64473       -4.78575
C          0.30650        3.09855       -4.19399
C         -0.78078        3.39336       -5.23203
C         -2.11957        3.80150       -4.60979
C          7.44738        1.71382       -3.35763
C          7.98096        0.29390       -3.55544
C          9.49931        0.18339       -3.80534
C         10.33675        0.63614       -2.60925
N         11.76221        0.53175       -2.90364
C         12.73109        0.93733       -2.00663
N         12.58097        1.53538       -0.87357
N         14.03616        0.62709       -2.44889
H          7.89489        2.53114        2.21176
H          6.87996        2.32348       -0.16213
H          5.48682        2.15486        0.92957
H          5.60723       -0.36229        0.61122
H          6.91726       -0.12355       -0.54649
H          4.01921        0.86801       -0.87838
H          4.79963       -0.42230       -1.78876
H          5.40970        3.42846       -2.10164
H          3.98058        0.92275       -4.70473
H          4.44987        2.59582       -5.04645
H          2.88485        3.35998       -3.17242
H          2.34821        1.69849       -2.97919
H          1.49507        1.71657       -5.36682
H          2.00268        3.40037       -5.50961
H          0.47033        4.00062       -3.57695
H         -0.06057        2.32350       -3.49662
H         -0.92672        2.50364       -5.86863
H         -0.42899        4.19262       -5.90698
H         -2.51436        3.00232       -3.96360
H         -2.88031        4.01873       -5.37460
H         -2.00788        4.70079       -3.98467
H          8.03178        2.23702       -2.58081
H          7.59337        2.29878       -4.28429
H          7.46303       -0.18081       -4.40640
H          7.73318       -0.33256       -2.67928
H          9.77416        0.79576       -4.68157
H          9.76762       -0.86458       -4.04517
H         10.06506        0.03827       -1.71717
H         10.10825        1.68655       -2.37461
H         12.02351       -0.25804       -3.48747
H         11.59370        1.58220       -0.60709
H         14.19553        0.87803       -3.42287
H         14.71281        1.08067       -1.83918
