16

Al         1.09929        0.28852       -0.23934
C          0.23765        1.32678        1.25832
N         -0.61762        0.47631        2.13064
C         -0.03311       -1.29191       -0.91049
C         -1.26197       -0.84172       -1.60317
O         -2.41172       -1.18851       -1.36241
O         -1.05621        0.09744       -2.59662
F          2.67242       -0.29178        0.15022
H          1.19067        1.19141       -1.64088
H         -0.31688        2.18190        0.81481
H          1.03071        1.77570        1.88434
H         -1.19757       -0.13526        1.55321
H         -1.27421        1.04295        2.67326
H         -0.27276       -2.07217       -0.17832
H          0.68355       -1.69402       -1.64656
H         -0.14903        0.47970       -2.45634
