63

N          2.82180       -1.26562        2.84240
C          3.58631       -0.65224        1.73508
C          4.09667       -1.70834        0.74814
C          4.82923       -1.13152       -0.46809
In         5.50911       -2.65252       -2.00284
C          3.93336       -4.28098       -1.84902
C          2.55576       -3.98876       -1.94390
C          1.56078       -4.95198       -1.76632
C          1.91993       -6.27999       -1.48198
C          3.27836       -6.61162       -1.37233
C          4.25045       -5.62184       -1.55098
C          0.85431       -7.31679       -1.29481
C          0.10330       -7.82157       -2.58801
C          0.91889       -8.48529       -3.76218
C          1.66476       -9.87122       -3.57192
C          0.82471      -11.12309       -3.11676
C          1.53821      -12.50607       -3.37070
F          2.78255      -12.51604       -2.85869
F          0.81862      -13.47392       -2.76266
F          1.60293      -12.79816       -4.68188
F          0.58100      -11.04446       -1.78725
F         -0.35784      -11.16801       -3.78561
F          2.18774      -10.16344       -4.80192
F          2.69450       -9.71265       -2.70802
F          0.03508       -8.66299       -4.79002
F          1.87226       -7.61614       -4.17787
F         -0.86931       -8.71484       -2.22560
F         -0.52054       -6.74807       -3.15294
F          1.33129       -8.44731       -0.66706
F         -0.17504       -6.83541       -0.50132
C          7.46094       -3.62619       -1.39662
C          7.66937       -3.91582        0.09444
C          9.05851       -4.49456        0.42034
C          9.30046       -4.80011        1.90012
N         10.67286       -5.25564        2.10380
C         11.16155       -5.63481        3.33786
N         10.57467       -5.57197        4.48657
N         12.47154       -6.14888        3.26467
H          2.60496       -0.56762        3.55631
H          3.40186       -1.97106        3.30222
H          4.44778       -0.04415        2.08128
H          2.90810        0.03674        1.20347
H          3.23590       -2.32115        0.43304
H          4.76204       -2.40029        1.29936
H          5.71430       -0.55836       -0.14012
H          4.17429       -0.41183       -0.98908
H          5.58603       -1.98609       -3.65158
H          2.23545       -2.96351       -2.15501
H          0.50677       -4.67564       -1.83192
H          3.57010       -7.63612       -1.13556
H          5.29983       -5.91624       -1.44489
H          8.26895       -2.96590       -1.75750
H          7.56066       -4.56457       -1.97142
H          6.89696       -4.61684        0.45919
H          7.53101       -2.99194        0.68460
H          9.82989       -3.78510        0.07505
H          9.20337       -5.42151       -0.16455
H          8.57349       -5.55739        2.25328
H          9.13932       -3.89184        2.50469
H         11.08741       -5.73240        1.30795
H          9.59179       -5.30803        4.38011
H         13.09400       -5.59239        2.68228
H         12.84793       -6.26655        4.20221
