51

C          1.92940       -0.58317       -2.44328
C          2.80783       -0.28183       -1.22576
C          3.56246        1.04720       -1.33187
C          4.43698        1.37485       -0.11664
C          5.19491        2.70929       -0.23822
C          6.05074        3.09355        0.96830
Nb         7.20303        4.98993        1.02292
C          5.72844        6.61567        1.22955
C          6.21092        7.93334        1.85209
C          7.04996        8.82655        0.92821
C          4.76039        6.81318        0.06374
C          9.43816        5.29876        1.09947
C         10.30936        4.45818        2.03549
C         10.27026        2.95845        1.71951
C         11.14129        2.12613        2.65491
N         11.06963        0.68754        2.32148
H          1.39789       -1.54098       -2.34080
H          2.53075       -0.63158       -3.36362
H          1.17352        0.20355       -2.58895
H          3.53377       -1.10047       -1.08338
H          2.18328       -0.27141       -0.31595
H          2.83453        1.86443       -1.48563
H          4.19259        1.03359       -2.23932
H          5.16806        0.56139        0.04103
H          3.80788        1.39606        0.79192
H          4.44892        3.50207       -0.44057
H          5.83901        2.67522       -1.13379
H          6.81435        2.31243        1.15655
H          5.41878        3.13491        1.88489
H          7.64639        6.05260       -0.33838
H          7.74986        4.83819        2.78691
H          7.74962        4.16110       -0.45827
H          5.18535        6.06222        2.04105
H          6.79971        7.70609        2.75671
H          5.33717        8.52571        2.20497
H          7.93303        8.28640        0.56080
H          7.38132        9.73477        1.45529
H          6.47595        9.14781        0.04622
H          5.26076        7.29421       -0.78957
H          3.88582        7.44165        0.33652
H          4.35820        5.85612       -0.30634
H          9.41517        6.34958        1.46448
H          9.88249        5.32146        0.09329
H          9.96416        4.60284        3.07393
H         11.37195        4.78487        2.00117
H         10.57563        2.77962        0.67528
H          9.22368        2.61149        1.79945
H         10.84087        2.34367        3.69998
H         12.19464        2.44072        2.55666
H         10.08660        0.40689        2.29766
H         11.50179        0.13305        3.06292
