50

C          1.55154       -1.78243        0.99052
C          2.81054       -1.08271        0.49425
P          2.42008        0.45928       -0.60280
C          1.92839        1.98213       -1.71893
C          2.25454        3.29739       -1.35700
C          1.84687        4.39391       -2.11657
C          1.09481        4.18967       -3.28662
C          0.75479        2.88154       -3.66770
C          1.16939        1.80364       -2.88278
C          0.65885        5.36688       -4.10438
C          1.75653        6.09851       -4.97057
C          2.54638        5.30239       -6.07836
C          1.81825        4.73526       -7.36737
C          1.02752        5.73889       -8.28910
C          0.74948        5.19335       -9.74204
F          0.19920        3.96565       -9.70685
F         -0.11561        6.03074      -10.35450
F          1.87432        5.14778      -10.47693
F         -0.17611        6.01083       -7.73135
F          1.72226        6.89769       -8.43627
F          2.81625        4.19119       -8.12649
F          0.97690        3.73818       -7.00567
F          3.52426        6.14410       -6.52902
F          3.14786        4.23318       -5.50246
F          1.19192        7.18330       -5.58624
F          2.71476        6.56595       -4.11925
F         -0.36083        5.04664       -4.97403
F          0.17345        6.38091       -3.29160
C          4.31575        0.52987       -1.25431
C          4.55291       -0.31574       -2.49823
C          5.96629       -0.37027       -3.06823
O          6.34902       -1.15443       -3.91381
O          6.82913        0.56620       -2.56934
H          1.76382       -2.72769        1.51921
H          0.88507       -2.01772        0.14327
H          0.98022       -1.13636        1.67515
H          3.41422       -1.77695       -0.11492
H          3.43793       -0.74566        1.33788
H          1.00070        0.46230       -0.13981
H          2.81349        1.41946        0.47138
H          2.04217       -0.44328       -1.73563
H          2.83370        3.46017       -0.44093
H          2.10218        5.40798       -1.80381
H          0.16169        2.71478       -4.56790
H          0.89263        0.78397       -3.17405
H          4.93933        0.19790       -0.40781
H          4.51008        1.60015       -1.44396
H          3.90885        0.03671       -3.32367
H          4.24383       -1.36058       -2.33686
H          6.31410        1.05323       -1.88611
