37

N          0.89377        0.98772       -0.80777
C          2.32263        0.78333       -0.45999
C          3.19105        0.60078       -1.71992
C          4.64692        0.34776       -1.43907
C          5.13028       -0.94137       -1.16932
C          6.52924       -1.23806       -0.92385
C          6.98927       -2.51826       -0.65109
C          6.14099       -3.64405       -0.59657
C          4.77324       -3.38636       -0.83404
C          4.28161       -2.11727       -1.09998
C          6.66582       -5.03433       -0.35289
C          5.55837        1.54297       -1.46293
C          6.28305        1.80606       -2.80791
C          7.22133        3.01625       -2.78213
C          7.93139        3.28362       -4.11244
H          0.31377        0.90709        0.03027
H          0.60310        0.21868       -1.41808
H          2.49057       -0.08597        0.20230
H          2.66885        1.67558        0.08737
H          3.06283        1.50442       -2.34578
H          2.74442       -0.22709       -2.31181
H          7.25961       -0.42622       -0.95175
H          8.06294       -2.65914       -0.47390
H          4.06261       -4.22181       -0.79807
H          3.20485       -2.00720       -1.24751
H          7.65313       -5.00636        0.13667
H          6.79247       -5.62993       -1.28092
H          5.99762       -5.62206        0.30144
H          6.33555        1.47011       -0.67450
H          4.98415        2.45892       -1.21469
H          5.52270        1.94287       -3.59756
H          6.84758        0.90011       -3.08641
H          7.97356        2.87042       -1.98623
H          6.64742        3.91329       -2.48563
H          8.53833        2.41709       -4.41814
H          8.60099        4.15747       -4.05973
H          7.20509        3.47055       -4.91915
