50

N          3.07918       -1.34853       -2.33869
C          3.66643       -0.03070       -1.94563
C          2.89656        0.64943       -0.84353
C          3.15594        0.25404        0.53252
C          4.37726       -0.35162        0.94511
C          4.61673       -0.73780        2.26225
C          3.65946       -0.57086        3.27394
C          2.42896       -0.01329        2.88113
C          2.18235        0.37754        1.57034
C          3.92089       -0.98744        4.69939
C          1.95720        1.64855       -1.22246
C          1.48364        1.77862       -2.58177
C          0.61723        2.77389       -2.98753
C          0.14244        3.75413       -2.08323
C          0.60053        3.67191       -0.74460
C          1.45564        2.66979       -0.33480
C         -0.78061        4.81223       -2.52798
C         -2.30547        4.45180       -2.71459
C         -3.14882        3.94404       -1.48503
C         -3.44827        4.87864       -0.23952
C         -4.15018        6.26697       -0.48396
C         -4.77553        6.90884        0.81448
F         -3.88893        6.94041        1.82612
F         -5.14092        8.17898        0.53065
F         -5.87379        6.24473        1.21889
F         -3.25063        7.15559       -0.96481
F         -5.16879        6.13434       -1.37510
F         -4.28761        4.14814        0.56184
F         -2.30510        5.09602        0.44989
F         -4.37178        3.57729       -1.98289
F         -2.56463        2.83561       -0.96774
F         -2.99832        5.52466       -3.23201
F         -2.38584        3.44608       -3.63658
F         -0.77185        5.91286       -1.68123
F         -0.44251        5.29177       -3.80344
H          3.41294       -1.61540       -3.27037
H          2.06649       -1.23354       -2.41631
H          3.74372        0.65805       -2.80775
H          4.70406       -0.23397       -1.63379
H          5.16863       -0.51813        0.21329
H          5.58441       -1.18443        2.51435
H          1.63094        0.09982        3.62264
H          1.19139        0.75516        1.31865
H          4.93950       -1.38582        4.81383
H          3.22084       -1.77058        5.03737
H          3.81486       -0.14445        5.40295
H          1.79894        1.04714       -3.32773
H          0.29552        2.80604       -4.03029
H          0.30042        4.43644       -0.02642
H          1.81889        2.69613        0.69173
