23

C          1.11401       -0.06943        0.06774
C          2.63804        0.07061        0.10130
C          3.12423        1.51627        0.24462
C          4.65368        1.64988        0.29199
C          5.17689        3.08129        0.40195
Ga         7.19490        3.25307        0.47652
I          8.08227        2.25944       -1.94138
C          8.10390        2.11363        1.87020
H          0.79893       -1.11736       -0.05210
H          0.68247        0.50637       -0.76592
H          0.66059        0.31157        0.99639
H          3.06894       -0.36025       -0.81838
H          3.04520       -0.53016        0.93301
H          2.68891        1.96121        1.15889
H          2.73550        2.11809       -0.59707
H          5.07968        1.18067       -0.61245
H          5.02916        1.04973        1.14130
H          4.78405        3.56154        1.31916
H          4.81235        3.68675       -0.44529
H          7.68848        4.77582        0.45766
H          7.85102        1.04972        1.76062
H          7.80039        2.43886        2.87932
H          9.19532        2.21544        1.79391
