62

O          1.75025        2.08433        1.06223
C          2.42481        2.25490        0.03184
O          2.79469        3.29121       -0.56242
C          2.98956        0.89185       -0.61658
S          2.12902       -0.61168        0.15373
O          0.71079       -0.59319       -0.13649
O          2.91979       -1.80384       -0.12416
C          2.28351       -0.46486        2.09156
F          3.35750        0.23746        2.48989
F          1.17830       -0.00393        2.66967
F          2.45562       -1.74652        2.51733
S          2.44443        0.84868       -2.44552
O          2.75291       -0.45754       -3.02518
O          1.08931        1.35913       -2.54184
C          3.54733        2.06569       -3.17323
C          4.49579        0.75190       -0.50321
C          5.22589        1.68713        0.25507
C          6.61312        1.59581        0.35594
C          7.33763        0.57940       -0.29799
C          6.59582       -0.35693       -1.04217
C          5.20557       -0.28277       -1.14106
Si         9.20983        0.48756       -0.15201
C          9.68850       -0.10533        1.59812
C          9.14139       -1.49525        1.94856
C          9.68269       -2.12465        3.22388
C          9.33927       -1.47773        4.61195
C          7.82381       -1.27219        5.01633
C          6.90266       -2.55100        5.08480
C          5.57077       -2.32933        5.90243
C          4.48639       -3.45372        5.70097
F          5.01433       -4.67087        5.95694
F          3.48285       -3.23488        6.57571
F          3.98703       -3.44338        4.46225
F          5.87221       -2.30118        7.22878
F          5.00725       -1.14872        5.55177
F          6.57717       -2.91091        3.81611
F          7.58277       -3.56947        5.67202
F          7.84445       -0.69892        6.25367
F          7.27079       -0.38921        4.14530
F          9.93623       -2.21358        5.58995
F          9.88865       -0.22634        4.64862
F          9.27164       -3.43926        3.29897
F         11.06229       -2.15583        3.18437
C          9.92460       -0.71245       -1.42740
C          9.98297        2.19411       -0.40001
H          4.56445        1.66353       -3.20502
H          3.46776        2.96543       -2.54832
H          3.14559        2.21464       -4.18329
H          4.69891        2.50270        0.74870
H          7.13626        2.34881        0.95239
H          7.10717       -1.16784       -1.56727
H          4.66194       -1.02434       -1.72248
H          9.32541        0.64528        2.31600
H         10.78781       -0.10353        1.67093
H          9.41144       -2.22774        1.17068
H          8.04377       -1.48913        1.99856
H          9.53519       -1.73373       -1.31198
H         11.01986       -0.76066       -1.33820
H          9.68457       -0.38268       -2.44815
H          9.58781        2.92287        0.32170
H          9.76400        2.57505       -1.40740
H         11.07541        2.15811       -0.27796
