25

S          0.92286       -1.43883       -0.62585
As         2.70691        0.17557        0.09989
C          4.35812        1.51763        0.47158
C          4.15065        2.71242        1.42061
F          3.82723        2.29426        2.67066
F          5.26555        3.50098        1.55145
F          3.15514        3.51858        0.97853
F          5.45708        0.82644        0.97063
F          4.77160        2.06393       -0.73545
C          3.11567       -1.00848        1.75793
C          3.82252       -2.29437        1.39170
C          3.81219       -3.34034        2.50781
N          4.46310       -4.59191        2.06335
H         -0.00217       -0.86623        0.18122
H          2.35006        1.08136       -1.13063
H          1.67381        1.00542        1.02486
H          3.72217       -0.68951       -0.79935
H          2.10676       -1.18380        2.15689
H          3.68849       -0.38256        2.45763
H          4.86360       -2.09703        1.09161
H          3.31207       -2.72530        0.50782
H          2.76453       -3.48912        2.83769
H          4.37203       -2.96307        3.38033
H          3.98814       -4.92185        1.21953
H          4.33008       -5.32335        2.76459
