18

N          0.90595        0.02796        0.03055
C          2.37805        0.05873       -0.12026
C          2.93409       -1.30705       -0.51233
C          4.46357       -1.32319       -0.61945
C          5.03931       -2.64848       -1.14184
N          6.38049       -2.72913       -0.70718
O          6.91394       -3.95915       -1.44006
H          0.57422        0.93524        0.37493
H          0.66691       -0.64718        0.76429
H          2.89852        0.40650        0.79637
H          2.61212        0.79226       -0.91196
H          2.47599       -1.62108       -1.46568
H          2.61731       -2.05319        0.24134
H          4.90553       -1.14383        0.37761
H          4.80605       -0.49868       -1.26785
H          4.91597       -2.65919       -2.26832
H          4.35743       -3.49689       -0.79755
H          7.83976       -3.89345       -1.16681
