64

C          0.81215       -0.07083        0.37004
C          2.33689       -0.10046        0.23215
C          2.90198       -1.50797        0.01209
C          4.42685       -1.54692       -0.12841
C          4.99270       -2.95263       -0.35354
C          6.51693       -2.98462       -0.50110
C          7.08887       -4.39002       -0.72097
C          8.61452       -4.41744       -0.88908
Si         9.36599       -6.15615       -1.07246
C          8.92093       -7.19969        0.41336
C          9.08721       -6.67973        1.71430
C          8.80344       -7.45028        2.84304
C          8.33154       -8.77741        2.75724
C          8.15973       -9.27922        1.45295
C          8.44604       -8.52085        0.31198
Ga         8.03123       -9.88478        4.43987
C          6.55785       -9.07396        5.61054
C          6.97217       -7.77130        6.27030
N          5.96467       -7.26869        7.25145
C          7.62312      -11.83572        3.99366
C          7.86168      -12.72715        5.19955
N          7.66119      -14.17701        4.90488
C          8.72878       -6.93994       -2.67580
C         11.24533       -5.94700       -1.20504
H          0.43718        0.95112        0.52419
H          0.47800       -0.67986        1.22352
H          0.32271       -0.47279       -0.53013
H          2.79705        0.33742        1.13441
H          2.64393        0.54830       -0.60630
H          2.44082       -1.94781       -0.89041
H          2.59659       -2.15803        0.85103
H          4.88706       -1.11077        0.77602
H          4.73210       -0.89305       -0.96531
H          4.52994       -3.39192       -1.25544
H          4.69488       -3.60608        0.48487
H          6.98086       -2.54576        0.40020
H          6.81703       -2.33258       -1.34172
H          6.60739       -4.83684       -1.60879
H          6.80529       -5.03430        0.12817
H          9.09201       -3.93761       -0.01636
H          8.91560       -3.81250       -1.76354
H          9.45310       -5.65491        1.85011
H          8.97016       -7.00545        3.82990
H          7.80132      -10.30497        1.31616
H          8.29976       -8.97345       -0.67434
H          9.41573       -9.80713        5.28229
H          6.30334       -9.81505        6.38800
H          5.65025       -8.91980        4.99813
H          7.18769       -7.01708        5.48675
H          7.91324       -7.91823        6.82712
H          5.05933       -7.21860        6.77681
H          6.19245       -6.30612        7.52004
H          8.25876      -12.16965        3.15603
H          6.57230      -11.92421        3.65918
H          7.22046      -12.38706        6.03832
H          8.90325      -12.61371        5.54424
H          6.73285      -14.29095        4.48931
H          7.64227      -14.70900        5.78051
H          7.64119       -7.09347       -2.64251
H          9.19876       -7.91796       -2.85213
H          8.95816       -6.29645       -3.53792
H         11.64442       -5.50246       -0.28190
H         11.52637       -5.29799       -2.04824
H         11.73523       -6.92158       -1.34094
