30

C          2.44599       -0.03797       -0.62034
C          0.97361       -0.02688       -0.28550
C          0.01735       -0.46646       -1.21456
C         -1.34792       -0.42787       -0.92108
C         -1.81837        0.04606        0.31883
C         -0.85315        0.47020        1.24861
C          0.51501        0.43888        0.95386
Ga        -3.75007        0.17784        0.78068
S         -4.82577       -1.82798       -0.18643
O         -6.24613       -1.98149        0.17525
O         -4.43950       -2.06858       -1.59181
C         -4.01579       -3.33383        0.72493
F         -4.15123       -3.22069        2.07202
F         -4.60935       -4.48929        0.34279
F         -2.69155       -3.43718        0.45491
C         -4.77937        1.69229       -0.21894
C         -4.28032        2.15478       -1.60730
F         -4.28871        1.12945       -2.48844
F         -5.04746        3.15084       -2.13970
F         -3.01251        2.63178       -1.52937
F         -6.12522        1.40348       -0.38051
F         -4.73000        2.84111        0.58310
H          2.73526       -0.96605       -1.13547
H          3.06285        0.05681        0.28429
H          2.71061        0.79707       -1.28957
H          0.34893       -0.84842       -2.18531
H         -2.05940       -0.78923       -1.66778
H         -1.16790        0.83274        2.23209
H          1.23977        0.77806        1.70089
H         -4.17658        0.18853        2.29027
