36

C          4.50610       -0.45761       -2.41396
C          3.43318       -1.52779       -2.15083
C          2.95309       -1.52886       -0.68693
Al         1.76002       -3.04963       -0.10848
C          1.49906       -2.84676        1.94576
F          0.89939       -1.65091        2.33790
F          0.72592       -3.82627        2.55746
F          2.69914       -2.86922        2.66876
C          2.68883       -4.84423       -0.36724
C          3.86679       -5.21029        0.32021
C          4.49827       -6.44193        0.11242
C          3.97827       -7.36419       -0.80493
C          2.81761       -7.02791       -1.49860
C          2.18645       -5.79104       -1.27621
C          2.21812       -7.98602       -2.48893
F          2.94649       -9.13146       -2.64034
F          0.95595       -8.37853       -2.13513
F          2.10246       -7.43710       -3.73701
C          5.75556       -6.81299        0.84721
F          6.11923       -5.90573        1.78784
F          5.64618       -8.02050        1.48904
F          6.82961       -6.94625        0.00022
C          2.26184       -1.34997       -3.12778
H          5.36947       -0.59231       -1.74528
H          4.09588        0.54880       -2.22627
H          4.87184       -0.48430       -3.45476
H          3.89530       -2.51056       -2.36487
H          2.43849       -0.57015       -0.47872
H          3.83514       -1.53221       -0.01877
H          0.29775       -3.14755       -0.82099
H          4.30056       -4.52251        1.04950
H          4.46785       -8.32321       -0.97029
H          1.26869       -5.56539       -1.82779
H          1.76767       -0.37827       -2.95918
H          1.49902       -2.12898       -2.98598
H          2.59771       -1.37898       -4.17678
