29

S          2.83432       -3.70249        2.43420
C          4.15967       -3.23290        1.24536
C          3.56142       -2.31150        0.18327
C          4.61623       -1.79611       -0.80894
Ta         5.67739       -3.16098       -2.18492
C          3.80824       -4.35104       -2.53189
C          2.53905       -3.75716       -3.18859
C          2.74359       -3.20648       -4.60625
C          1.39515       -4.78970       -3.19911
Br         7.07308       -1.06263       -2.92533
H          3.55520       -4.59883        3.14855
H          4.57521       -4.13491        0.77671
H          4.95902       -2.71727        1.79636
H          3.06282       -1.46641        0.69708
H          2.76759       -2.85898       -0.34837
H          5.39372       -1.22560       -0.26632
H          4.14658       -1.06134       -1.49145
H          7.33793       -3.73665       -1.88006
H          5.42959       -3.15410       -3.94222
H          5.76507       -4.65122       -1.19470
H          3.49743       -4.79759       -1.56839
H          4.15173       -5.22146       -3.13322
H          2.19610       -2.91221       -2.55932
H          3.13819       -3.98960       -5.27404
H          3.46589       -2.38063       -4.62451
H          1.78941       -2.85011       -5.02969
H          1.66229       -5.64445       -3.84327
H          0.45216       -4.36137       -3.58173
H          1.20801       -5.18430       -2.18908
