41

S          0.27861        0.42334        3.52641
C          1.94336        0.63370        4.27764
C          2.93317        0.98968        3.17350
C          4.37000        1.15873        3.68646
N          5.22235        1.52608        2.59012
C          6.50592        1.73843        2.85330
C          7.15928        1.63191        4.14421
C          8.50837        1.88908        4.30799
C          9.32893        2.27485        3.22265
C          8.71741        2.38365        1.94283
C          7.37865        2.12802        1.76764
C         10.76200        2.54369        3.41385
C         11.73138        1.32183        3.65017
C         11.80402        0.16367        2.58404
C         12.32466        0.42530        1.11088
C         13.76356        1.03299        0.90936
C         14.33898        0.84587       -0.54768
F         13.45599        1.23869       -1.48416
F         15.45179        1.60407       -0.67035
F         14.68424       -0.43326       -0.78517
F         13.73684        2.36331        1.15260
F         14.65403        0.44338        1.75142
F         12.33155       -0.80772        0.50927
F         11.44029        1.20383        0.44840
F         12.63019       -0.79559        3.11210
F         10.57637       -0.38931        2.43668
F         13.02775        1.75577        3.82783
F         11.35806        0.70154        4.80982
F         11.31669        3.23795        2.34813
F         11.01039        3.32642        4.56042
H         -0.40538        0.17676        4.66952
H          2.22867       -0.30380        4.77534
H          1.89341        1.43226        5.03109
H          2.62847        1.92602        2.68012
H          2.93043        0.21040        2.39482
H          4.68192        0.20588        4.18170
H          4.36419        1.92023        4.50557
H          6.57208        1.34918        5.01926
H          8.94797        1.80717        5.30512
H          9.31945        2.68927        1.08606
H          6.92062        2.22525        0.78098
