22

S          3.43389       -1.48406       -0.23690
C          2.85106        0.20052       -0.71945
C          3.21613        1.21491        0.37091
C          4.70768        1.31009        0.68654
Ga         5.21321        2.78321        1.97735
C          7.20155        2.60428        2.39053
O          7.78106        3.90719        2.80513
C          9.09123        3.95039        2.96760
F          9.81504        3.68571        1.82018
F          9.45010        5.19920        3.36936
F          9.58422        3.07292        3.90686
I          3.93248        2.24826        4.29550
H          2.66539       -2.16074       -1.12335
H          1.76254        0.15163       -0.86951
H          3.33037        0.47066       -1.67244
H          2.65731        0.97503        1.29034
H          2.83877        2.19601        0.03022
H          5.27834        1.49682       -0.24256
H          5.07316        0.35285        1.09377
H          4.75888        4.24346        1.55787
H          7.74698        2.27212        1.49209
H          7.38322        1.88619        3.20259
