33

N          1.01487        0.73712       -0.20725
C          2.47666        0.52768       -0.20351
C          2.89243       -0.43623        0.91027
C          4.39333       -0.70325        0.97140
Sb         5.00971       -2.04509        2.64819
C          4.20705       -3.92584        1.67772
C          2.80899       -4.28803        2.15102
C          2.47971       -5.77133        1.89425
C          1.04588       -6.21485        2.10270
C          0.44780       -6.07478        3.53833
F          0.29045       -4.78387        3.88822
F         -0.76997       -6.67046        3.61009
F          1.25106       -6.67043        4.44843
F          0.18359       -5.54355        1.26101
F          0.92628       -7.56049        1.78439
Cl         5.70798       -3.69570        4.63982
H          0.76292        1.48859       -0.85126
H          0.71805        1.04598        0.72132
H          3.05587        1.46731       -0.09092
H          2.75656        0.10047       -1.18114
H          2.33541       -1.37909        0.77851
H          2.54909       -0.02396        1.87746
H          4.96166        0.23331        1.08800
H          4.74643       -1.19474        0.05082
H          5.73505       -0.76080        3.62462
H          6.58662       -2.40193        1.88948
H          3.45438       -1.86867        3.52329
H          4.95178       -4.67738        1.97120
H          4.25617       -3.76520        0.58851
H          2.05773       -3.65506        1.65283
H          2.72626       -4.07280        3.23009
H          3.12012       -6.40880        2.52214
H          2.69561       -6.03363        0.84574
