69

N          6.48204       -5.31386       -7.27651
C          5.84365       -4.94348       -5.99628
C          6.78425       -4.11724       -5.12351
C          6.16533       -3.69134       -3.78593
C          7.10700       -2.90613       -2.86508
B          6.43617       -2.40663       -1.45392
C          7.40496       -1.44278       -0.56942
C          8.76760       -1.21700       -0.85971
C          9.57187       -0.36571       -0.09576
C          9.06165        0.31494        1.02824
C          7.70120        0.09028        1.33955
C          6.91023       -0.75480        0.56181
Si        10.08975        1.54605        1.98248
C          9.88340        3.28400        1.20278
C          8.41338        3.70688        1.07804
C          8.23992        5.06735        0.43028
C          6.76742        5.53264        0.13622
C          5.71874        5.64557        1.30786
C          5.93381        6.64543        2.51655
C          6.10192        8.17850        2.19920
C          5.89529        9.12316        3.44450
F          4.60781        9.16120        3.82853
F          6.65172        8.72809        4.48572
F          6.26692       10.37288        3.09645
F          7.35114        8.40852        1.73203
F          5.19687        8.56165        1.26148
F          4.81798        6.51190        3.29366
F          7.00173        6.23311        3.24338
F          4.52872        5.96960        0.73216
F          5.58319        4.41736        1.88172
F          6.80413        6.75187       -0.48037
F          6.22295        4.63843       -0.73601
F          8.83402        6.05996        1.18382
F          8.85268        5.10299       -0.80214
C          9.54029        1.65333        3.79324
C         11.93700        1.14022        1.92027
C          5.86397       -3.63642       -0.54630
O          6.96686       -4.61539       -0.20973
C          6.65177       -5.63462        0.55265
F          6.20506       -5.29783        1.81707
F          5.66101       -6.45698        0.04304
F          7.74732       -6.42821        0.73435
H          5.88033       -5.95463       -7.79721
H          7.34194       -5.83170       -7.08075
H          5.49751       -5.82082       -5.41284
H          4.94519       -4.34851       -6.23226
H          7.11056       -3.22809       -5.68917
H          7.69848       -4.70780       -4.92441
H          5.80490       -4.59618       -3.26405
H          5.26385       -3.08308       -3.98511
H          7.48000       -2.02651       -3.42558
H          8.00169       -3.53294       -2.67564
H          5.40104       -1.75434       -1.69248
H          9.21526       -1.72454       -1.71855
H         10.62103       -0.23425       -0.38170
H          7.25089        0.58557        2.20688
H          5.85707       -0.88427        0.83295
H         10.34671        3.25729        0.20441
H         10.44515        4.02231        1.79778
H          7.93415        3.74907        2.06657
H          7.85044        2.97277        0.48170
H          8.47461        1.90601        3.88848
H         10.11615        2.41763        4.33613
H          9.69165        0.68919        4.29892
H         12.30231        1.08780        0.88500
H         12.13928        0.16921        2.39386
H         12.52682        1.90571        2.44592
H          5.09295       -4.22800       -1.06440
H          5.45172       -3.30468        0.41992
