42

C          1.33233        0.76749        0.64336
C          2.81205        0.37723        0.57613
C          3.06638       -0.95253       -0.14299
C          4.54920       -1.32586       -0.25048
C          4.81053       -2.65277       -0.98007
C          6.27588       -2.99801       -1.16681
As         6.53632       -4.69544       -2.32517
C          6.71827       -6.36790       -3.73775
C          5.42797       -6.57963       -4.41033
O          4.73067       -7.58640       -4.36052
O          4.96670       -5.48640       -5.11577
C          8.59470       -4.31520       -2.55591
C          9.47681       -5.49365       -2.17723
C         10.86797       -5.09910       -1.67931
N         11.67051       -6.29242       -1.33830
H          1.18402        1.72269        1.16886
H          0.74128        0.00239        1.16959
H          0.90407        0.87299       -0.36531
H          3.22555        0.32215        1.59821
H          3.37886        1.17616        0.06714
H          2.63113       -0.90701       -1.15727
H          2.52118       -1.75931        0.37925
H          4.99089       -1.37159        0.76169
H          5.08787       -0.51598       -0.77514
H          4.32363       -2.61763       -1.97331
H          4.30380       -3.47053       -0.43643
H          6.78425       -3.18594       -0.20611
H          6.80878       -2.19065       -1.69426
H          6.88503       -5.64870       -1.06767
H          4.98664       -5.02548       -2.20726
H          6.21571       -3.76364       -3.70855
H          7.05511       -7.26573       -3.20986
H          7.48672       -5.97881       -4.41644
H          5.48334       -4.69740       -4.78913
H          8.78776       -3.44937       -1.90226
H          8.71671       -3.99831       -3.60195
H          9.58957       -6.19340       -3.02013
H          8.97283       -6.06685       -1.36927
H         10.74731       -4.39419       -0.83107
H         11.40529       -4.55008       -2.47109
H         11.14966       -6.86161       -0.66686
H         12.53449       -6.01719       -0.86782
