72

C         10.07213        3.55652       15.63459
C         10.75586        3.36340       14.27870
C          9.86919        3.75029       13.09076
C         10.54350        3.55306       11.72990
C          9.65197        3.91377       10.53748
C         10.33240        3.70497        9.18126
C          9.43393        4.01821        7.97837
C         10.12838        3.80000        6.62481
Si         9.07798        4.12525        5.07254
C          8.56060        5.92751        4.96172
C          9.26277        6.96157        5.61785
C          8.91365        8.30419        5.45203
C          7.82998        8.71384        4.63621
C          7.11466        7.66103        4.01001
C          7.47521        6.31762        4.15276
Nb         7.16080       10.80405        4.30430
C          5.52292       11.03779        2.85346
C          5.36394       10.18318        1.73813
C          4.26515       10.26874        0.87852
C          3.26204       11.23111        1.07565
C          3.40482       12.09637        2.17008
C          4.50111       11.99695        3.03459
C          2.09217       11.34747        0.12810
C          6.52270       11.43855        6.30749
C          5.32335       10.46785        6.29043
C          5.28834        9.53317        7.48208
O          4.51447        9.63856        8.41366
O          6.22914        8.54769        7.49374
C         10.12474        3.66004        3.55985
C          7.55203        3.00023        5.09510
H         10.73260        3.27334       16.46677
H          9.16000        2.94532       15.70954
H          9.77717        4.60585       15.78452
H         11.06811        2.31064       14.16943
H         11.68440        3.95854       14.24610
H          9.55868        4.80453       13.19586
H          8.93789        3.15737       13.12546
H         10.86836        2.50131       11.63489
H         11.46674        4.15823       11.69074
H          9.32688        4.96470       10.62550
H          8.72892        3.30870       10.57860
H         10.68440        2.65997        9.10637
H         11.23961        4.33297        9.12729
H          9.07780        5.05912        8.05057
H          8.52879        3.38939        8.03828
H         10.49403        2.75890        6.55827
H         11.03359        4.43038        6.56575
H         10.11399        6.71712        6.26198
H          9.52242        9.06452        5.95208
H          6.24885        7.89180        3.37894
H          6.88542        5.55872        3.62724
H          8.78683       10.58740        3.66739
H          8.17446       12.18245        4.72764
H          7.76630       11.70524        2.92795
H          6.12709        9.42805        1.51864
H          4.18471        9.57758        0.03245
H          2.63768       12.85666        2.35359
H          4.55314       12.69988        3.87452
H          1.77924       10.36232       -0.24847
H          2.34044       11.96472       -0.75188
H          1.22512       11.81423        0.61742
H          6.22307       12.47270        6.50828
H          7.29680       11.15368        7.03637
H          5.33013        9.82021        5.36430
H          4.36928       11.00600        6.24119
H          6.76952        8.57166        6.67047
H         11.03958        4.26827        3.51579
H          9.56476        3.84136        2.63117
H         10.41950        2.59972        3.57898
H          6.90352        3.21934        5.95472
H          7.84690        1.94137        5.14857
H          6.94918        3.13106        4.18508
