28

N          1.74477        1.29516       -1.49276
Ga         2.87882        0.18260       -0.38267
C          3.84353        1.32874        1.15630
C          4.71095        2.54640        0.76412
C          5.44093        3.37923        1.87263
F          4.57123        3.92199        2.75105
F          6.32853        2.63356        2.56426
F          6.13724        4.41097        1.30964
F          5.70422        2.12692       -0.08855
F          3.92848        3.44962        0.08684
F          2.89040        1.82460        2.06157
F          4.67812        0.50232        1.93180
C          4.34047       -0.74332       -1.44936
C          3.90318       -1.72690       -2.55243
C          3.03589       -2.86581       -1.99632
C          3.17321       -1.00640       -3.69583
H          2.28361        2.01911       -1.97432
H          1.07330        1.80541       -0.91366
H          1.94636       -0.74365        0.52799
H          4.96695       -1.27659       -0.71272
H          4.99111        0.03051       -1.89183
H          4.80863       -2.19901       -2.98964
H          2.10020       -2.47242       -1.57140
H          3.55694       -3.40397       -1.18931
H          2.77814       -3.59470       -2.78248
H          2.27855       -0.48635       -3.31830
H          2.86799       -1.71272       -4.48616
H          3.82305       -0.24581       -4.15636
