31

C          2.32923       -0.26786        4.45129
O          3.73945       -0.27820        4.47440
C          4.29855        0.24737        3.26991
C          5.82476        0.24513        3.39303
O          6.46213        0.55497        2.17042
C          6.34865        1.93332        1.74186
C          6.77889        3.00837        2.73219
Nb         8.88769        3.27552        3.52023
C         10.04702        2.29358        5.18065
C         10.77879        3.24730        6.05633
O         10.68157        3.31731        7.27349
O         11.62916        4.12620        5.41782
O         10.47224        4.26644        2.84105
H          1.98037       -0.66934        5.41260
H          1.92704       -0.89709        3.63192
H          1.92888        0.75738        4.32408
H          3.91735        1.27256        3.09787
H          3.99718       -0.37632        2.40384
H          6.15450       -0.77065        3.66292
H          6.14095        0.92279        4.20448
H          5.29977        2.09575        1.40209
H          6.99247        1.97602        0.85129
H          6.07929        3.05477        3.58965
H          6.62472        3.97973        2.21643
H          8.95434        2.69744        1.84694
H          8.59795        1.54466        3.41180
H          7.80168        4.52753        4.25633
H         10.75031        1.75889        4.51664
H          9.50186        1.56116        5.78477
H         11.44571        4.10805        4.44573
H         10.81561        4.06974        1.95993
