73

C         19.07987       -5.16502        0.50204
C         17.75976       -4.39437        0.42633
C         16.68532       -5.10446       -0.40360
C         15.36370       -4.33455       -0.48207
C         14.28799       -5.02430       -1.32732
C         12.96727       -4.25041       -1.38121
C         11.89141       -4.90494       -2.25728
C         10.57407       -4.11648       -2.29531
Si         9.20454       -4.81084       -3.42490
C          8.70729       -6.54681       -2.92278
C          8.47129       -6.86748       -1.56682
C          8.02960       -8.13968       -1.19087
C          7.81231       -9.14370       -2.13985
C          8.05061       -8.83799       -3.48192
C          8.48860       -7.56565       -3.87269
As         6.94580      -10.95654       -1.54992
C          5.87472      -12.64391       -0.93903
C          6.17775      -13.08702        0.48752
C          5.56803      -12.16067        1.53966
N          5.85086      -12.65173        2.90514
C          8.58622      -12.09928       -2.25468
C          9.92857      -11.57000       -1.77738
C         11.01952      -12.63685       -1.59904
C         12.33555      -12.07758       -1.04951
C          7.73068       -3.62202       -3.27963
C          9.81646       -4.77796       -5.22076
H         19.82995       -4.62927        1.10129
H         19.50491       -5.32370       -0.50067
H         18.93511       -6.15633        0.95717
H         17.94162       -3.39287        0.00014
H         17.37423       -4.22303        1.44575
H         16.49957       -6.10651        0.02155
H         17.06993       -5.27691       -1.42464
H         15.55530       -3.32626       -0.89144
H         14.97600       -4.17573        0.53995
H         14.10149       -6.03680       -0.92953
H         14.66922       -5.16850       -2.35396
H         13.15981       -3.22687       -1.75152
H         12.57357       -4.13057       -0.35614
H         11.69523       -5.92787       -1.89559
H         12.29026       -5.01977       -3.28057
H         10.76986       -3.07673       -2.61692
H         10.16423       -4.03621       -1.27274
H          8.62796       -6.10637       -0.79257
H          7.83534       -8.36239       -0.13368
H          7.87237       -9.60654       -4.24409
H          8.65881       -7.36379       -4.93573
H          7.74236      -10.83742       -0.12160
H          6.21730      -11.02924       -2.99496
H          5.75378      -10.02055       -0.94489
H          6.10411      -13.43758       -1.66595
H          4.81797      -12.35401       -1.06116
H          7.27070      -13.11540        0.65159
H          5.81209      -14.11833        0.68057
H          4.48372      -12.05378        1.33145
H          6.01354      -11.15987        1.43767
H          5.42205      -13.57294        3.02504
H          5.40785      -12.04154        3.59419
H          8.50662      -12.14986       -3.35163
H          8.39736      -13.10672       -1.84910
H          9.77991      -11.06599       -0.79888
H         10.29766      -10.78720       -2.46164
H         11.20364      -13.14175       -2.56351
H         10.63900      -13.41777       -0.91791
H         12.75741      -11.31871       -1.72675
H         13.09459      -12.86357       -0.91234
H         12.17600      -11.59148       -0.07471
H          7.34968       -3.60213       -2.24831
H          6.90427       -3.94442       -3.92903
H          8.00743       -2.59419       -3.56061
H         10.67649       -5.44649       -5.36761
H         10.12251       -3.76079       -5.50803
H          9.02636       -5.09703       -5.91546
