48

N          4.30796        1.46815       -1.36264
In         3.21069        1.52457        0.49724
C          1.16247        0.61978        0.22330
C          0.66604        0.30411       -1.05554
C         -0.59700       -0.27157       -1.25259
C         -1.42976       -0.57453       -0.16644
C         -0.95125       -0.27674        1.11871
C          0.30778        0.30802        1.30035
C         -2.78711       -1.20784       -0.36464
C          4.32090        0.06867        1.80842
C          5.70679        0.17803        2.04708
C          6.38472       -0.67760        2.92183
C          5.70658       -1.70306        3.61564
C          4.33099       -1.85038        3.35064
C          3.66686       -0.99052        2.46721
Si         6.57912       -2.71345        4.92375
C          7.16753       -1.50335        6.28353
C          7.82615       -2.15410        7.50353
C          8.32429       -1.16855        8.53941
F          7.32722       -0.39386        9.05100
F          8.90203       -1.80903        9.60577
F          9.26857       -0.31885        8.04465
C          5.41508       -3.98268        5.71380
C          8.09821       -3.62297        4.24459
H          3.92137        2.13632       -2.03581
H          4.18074        0.55313       -1.80679
H          3.19964        3.18194        1.12003
H          1.28395        0.51521       -1.93602
H         -0.94598       -0.49045       -2.26839
H         -1.57707       -0.50372        1.98935
H          0.62455        0.52815        2.32565
H         -3.09289       -1.17266       -1.42025
H         -3.56186       -0.69714        0.22780
H         -2.79323       -2.26614       -0.05465
H          6.27993        0.95885        1.53671
H          7.46096       -0.53234        3.07625
H          3.76149       -2.64226        3.84860
H          2.59805       -1.15410        2.29361
H          6.29172       -0.91353        6.59644
H          7.86272       -0.78930        5.81387
H          8.69902       -2.76106        7.21810
H          7.12678       -2.82165        8.02904
H          4.54582       -3.49591        6.17865
H          5.92957       -4.56940        6.48936
H          5.03727       -4.69038        4.96202
H          8.78649       -2.92478        3.74699
H          7.79469       -4.37321        3.50045
H          8.65803       -4.14429        5.03613
