13

I          1.82552        1.06050       -1.29851
B          3.15307       -0.09376        0.27168
C          3.95720        1.00856        1.15814
F          4.72043        0.37162        2.14197
F          4.88265        1.79629        0.48480
F          3.18586        1.90869        1.86068
C          4.10846       -1.13788       -0.51638
N          5.04394       -0.63877       -1.56954
H          2.34148       -0.63580        0.99604
H          3.48556       -1.91884       -0.98465
H          4.72327       -1.67529        0.23140
H          5.63859        0.07444       -1.13804
H          4.47107       -0.09734       -2.22790
