31

S          1.96827       -1.73334       -1.01582
Sb         4.39271       -0.61911       -0.79335
C          4.42347       -1.21437        1.55841
C          4.41293       -2.64306        2.16968
C          5.57676       -3.59993        1.72806
C          5.76700       -4.88075        2.62253
F          4.61044       -5.55078        2.79304
F          6.64390       -5.71600        2.00955
F          6.27493       -4.58324        3.83460
F          5.34064       -4.04767        0.46754
F          6.77476       -2.95065        1.73850
F          4.47371       -2.57816        3.55843
F          3.24423       -3.26452        1.85774
F          5.51980       -0.56574        2.12975
F          3.30908       -0.60375        2.12075
C          4.36733        0.10137       -2.90952
C          3.05751        0.71584       -3.38428
C          2.99362        0.91099       -4.90036
N          1.68765        1.47166       -5.30469
H          1.33919       -0.70599       -0.40005
H          3.58670        0.81513       -0.13667
H          4.94118       -2.22828       -1.25739
H          6.03151       -0.01455       -0.51132
H          4.61279       -0.80433       -3.48761
H          5.21099        0.80437       -2.99822
H          2.88018        1.68559       -2.89033
H          2.22684        0.05285       -3.07936
H          3.21694       -0.06241       -5.38340
H          3.77902        1.61399       -5.22743
H          0.94685        0.86942       -4.93741
H          1.59363        1.44652       -6.32174
