53

N          2.19765        0.43465        2.29460
C          3.18774        0.96878        1.32332
C          2.73831        0.80870       -0.11340
P          3.86369        1.75818       -1.38350
C          4.87600        0.08860       -1.77247
C          4.58200       -0.70560       -2.89085
C          5.28996       -1.87102       -3.18174
C          6.33872       -2.27706       -2.34036
C          6.65825       -1.50023       -1.21492
C          5.92979       -0.33902       -0.94870
C          7.11508       -3.52522       -2.62809
C          6.85347       -4.76995       -1.69192
C          5.38796       -5.33335       -1.52590
C          4.58384       -5.94597       -2.74111
C          5.13107       -7.18722       -3.55655
C          5.45418       -8.52653       -2.79495
F          4.42500       -8.90704       -2.01525
F          5.66672       -9.49268       -3.71678
F          6.55884       -8.42057       -2.04192
F          4.14560       -7.48938       -4.45159
F          6.23670       -6.82970       -4.25019
F          3.37859       -6.32204       -2.22402
F          4.35808       -4.97238       -3.65615
F          5.45980       -6.32323       -0.58198
F          4.60410       -4.34486       -1.03174
F          7.64924       -5.80474       -2.09675
F          7.23842       -4.43354       -0.42632
F          6.92435       -3.97060       -3.91693
F          8.47742       -3.30669       -2.49136
C          4.93870        2.73543       -2.70167
C          6.25659        3.31680       -2.14812
C          7.47118        2.98953       -2.99311
O          8.08774        3.81711       -3.67162
N          7.86856        1.67359       -2.94344
H          2.61030        0.41322        3.23159
H          2.00139       -0.54052        2.05507
H          4.18663        0.50448        1.44483
H          3.31846        2.04338        1.54319
H          1.73039        1.23360       -0.24952
H          2.70154       -0.25958       -0.39330
H          4.87729        2.05357       -0.32292
H          2.92075        1.40507       -2.47833
H          3.10861        3.00464       -1.06472
H          3.76941       -0.38994       -3.55518
H          5.04474       -2.46284       -4.06420
H          7.48124       -1.79763       -0.56258
H          6.18875        0.26786       -0.07423
H          4.27989        3.53799       -3.06596
H          5.12994        2.05723       -3.54736
H          6.40712        2.91440       -1.12320
H          6.21206        4.40877       -2.05932
H          7.27058        0.96860       -2.52183
H          8.55118        1.36925       -3.62737
