73

C          4.70674        8.02163        2.28908
C          4.52189        6.93215        1.22988
C          5.81660        6.57999        0.49056
C          5.64570        5.49312       -0.57489
C          6.94269        5.13434       -1.30699
C          6.76843        4.06294       -2.38861
C          8.06789        3.70210       -3.12139
C          7.89878        2.64869       -4.22644
Si         9.47525        2.14385       -5.20478
C          9.15086        0.91488       -6.53609
C          8.95046        1.29103       -7.89682
C          8.71446        0.38152       -8.90913
C          8.64103       -1.05218       -8.68280
C          8.82127       -1.41691       -7.28735
C          9.06609       -0.48855       -6.29431
C          8.43281       -1.98419       -9.70450
C          8.29129       -1.55170      -11.14364
C          9.62769       -1.32606      -11.89193
C          9.45552       -0.89737      -13.35239
C         10.77369       -0.66098      -14.09597
C         10.58776       -0.21517      -15.54955
C          8.45901       -3.46799       -9.43826
C          7.11883       -4.10753       -8.98823
C          6.02354       -4.01640      -10.04576
N          4.77154       -4.65006       -9.58400
C         10.20496        3.75087       -5.92254
C         10.70694        1.47116       -3.91453
H          3.76455        8.25113        2.80733
H          5.07484        8.95527        1.83708
H          5.44015        7.71441        3.05013
H          3.76277        7.25484        0.49713
H          4.11644        6.02183        1.70334
H          6.57593        6.25588        1.22460
H          6.22430        7.49202        0.01888
H          4.89180        5.82226       -1.31189
H          5.23021        4.58421       -0.10462
H          7.69221        4.79164       -0.57117
H          7.36583        6.04666       -1.76445
H          6.02299        4.40797       -3.12700
H          6.34318        3.14966       -1.93584
H          8.80459        3.34991       -2.37744
H          8.49656        4.62563       -3.54977
H          7.15901        3.00035       -4.96746
H          7.46709        1.72499       -3.80101
H          8.99859        2.35139       -8.17121
H          8.59485        0.76583       -9.92503
H          8.76022       -2.46987       -7.00222
H          9.19921       -0.86566       -5.27285
H          7.69838       -0.62003      -11.22588
H          7.71883       -2.30882      -11.71292
H         10.22029       -2.25703      -11.84868
H         10.21152       -0.56667      -11.34575
H          8.84952        0.02675      -13.38980
H          8.86657       -1.66241      -13.89238
H         11.37478       -1.58643      -14.06949
H         11.36307        0.09603      -13.55133
H         10.02852       -0.96732      -16.12801
H         11.55181       -0.05419      -16.05594
H         10.02136        0.72736      -15.60476
H          9.21280       -3.71941       -8.66808
H          8.78918       -4.00333      -10.35203
H          6.76476       -3.61591       -8.06877
H          7.28656       -5.17693       -8.74159
H          6.40508       -4.45326      -10.99333
H          5.81132       -2.95501      -10.24568
H          4.93881       -5.64481       -9.41683
H          4.06455       -4.60149      -10.32003
H          9.50000        4.23809       -6.61237
H         11.12363        3.53539       -6.48681
H         10.45255        4.47409       -5.13089
H         10.34467        0.52693       -3.48089
H         10.87007        2.17920       -3.08727
H         11.67900        1.26385       -4.38446
