60

C          1.60544        0.52825        0.22049
C          3.05096        0.09046       -0.03756
C          3.18559       -1.38770       -0.44465
C          4.61718       -1.83545       -0.69268
Sb         4.88649       -4.01014       -1.31429
C          4.77291       -3.45607       -3.54912
C          4.23449       -2.26794       -4.06464
C          4.31044       -1.95581       -5.43041
C          4.93175       -2.82483       -6.33706
C          5.45917       -4.02467       -5.83153
C          5.37682       -4.32580       -4.46799
C          5.03606       -2.48340       -7.80561
C          7.14894       -3.52892       -1.43888
C          8.07939       -4.24124       -0.66894
C          9.44671       -3.94193       -0.70260
C          9.94567       -2.89813       -1.51215
C          9.00960       -2.17704       -2.28048
C          7.64683       -2.49263       -2.24341
Si        11.77866       -2.54034       -1.61732
C         12.65484       -4.08522       -2.32999
C         14.10164       -3.86128       -2.78211
C         14.82431       -5.12817       -3.18708
F         14.19199       -5.80165       -4.18737
F         16.09159       -4.86322       -3.63771
F         14.96194       -6.00404       -2.14947
C         12.13593       -1.05661       -2.74216
C         12.53092       -2.18846        0.08743
H          1.54029        1.58919        0.50780
H          1.15223       -0.06533        1.02940
H          0.98308        0.38642       -0.67665
H          3.66085        0.27186        0.86408
H          3.49237        0.72074       -0.82898
H          2.57060       -1.56034       -1.34715
H          2.72597       -2.01762        0.33867
H          5.22717       -1.76170        0.22192
H          5.10040       -1.21707       -1.46465
H          5.15165       -4.50844        0.39831
H          5.22223       -5.68537       -1.86739
H          3.11462       -4.30630       -1.20921
H          3.75338       -1.54738       -3.39660
H          3.89171       -1.01235       -5.79846
H          5.95469       -4.72192       -6.51640
H          5.81268       -5.26290       -4.09976
H          4.70749       -1.45217       -7.99888
H          4.41493       -3.15051       -8.42556
H          6.07049       -2.58028       -8.17062
H          7.72680       -5.05305       -0.02078
H         10.13618       -4.53333       -0.08791
H          9.34766       -1.35826       -2.92433
H          6.95989       -1.91784       -2.87234
H         12.05199       -4.45837       -3.17132
H         12.61840       -4.86779       -1.55531
H         14.71540       -3.40348       -1.99064
H         14.14512       -3.18872       -3.65172
H         11.78687       -1.22557       -3.77068
H         13.21426       -0.84162       -2.78184
H         11.63449       -0.15379       -2.36524
H         12.30069       -2.99961        0.79284
H         12.11516       -1.26042        0.50541
H         13.62517       -2.07674        0.04460
