54

N          1.58176       -0.16679        0.88863
C          2.52249        0.27422       -0.15143
P          3.02752       -1.19837       -1.33830
C          2.57930       -0.26315       -3.03434
C          2.83863        1.07786       -3.36308
C          2.42404        1.63371       -4.57930
C          1.72845        0.86621       -5.53644
C          1.46528       -0.48195       -5.20917
C          1.88037       -1.01742       -3.98787
Si         1.17450        1.63145       -7.14643
C          2.68181        2.44191       -8.00143
C          2.36834        3.14962       -9.32307
C          3.56554        3.80157       -9.98053
F          4.55239        2.91012      -10.28059
F          3.22219        4.40919      -11.16111
F          4.13211        4.76680       -9.20236
C          0.44437        0.33319       -8.31805
C         -0.12599        2.98315       -6.85818
C          4.90855       -0.65770       -1.42610
C          5.74149       -1.58896       -2.29340
C          7.23072       -1.23016       -2.39165
C          8.02047       -2.18217       -3.28686
N          9.44399       -1.79309       -3.36413
H          2.01887       -0.97871        1.34485
H          0.77764       -0.57968        0.39868
H          3.42686        0.66954        0.34006
H          2.05352        1.09383       -0.71897
H          1.57821       -1.64032       -1.28896
H          3.30296       -2.39503       -2.17590
H          3.29759       -2.00916       -0.08798
H          3.37802        1.71624       -2.65630
H          2.65148        2.68715       -4.78330
H          0.92873       -1.12007       -5.91957
H          1.66271       -2.06632       -3.74859
H          3.43681        1.65662       -8.16182
H          3.12814        3.15452       -7.29003
H          1.62339        3.94843       -9.18669
H          1.95676        2.44978      -10.06659
H          1.17699       -0.45206       -8.55294
H          0.11520        0.78631       -9.26505
H         -0.43133       -0.15334       -7.86515
H          0.26430        3.76160       -6.18633
H         -1.01672        2.55371       -6.37758
H         -0.44832        3.46803       -7.79241
H          5.27023       -0.67530       -0.38310
H          4.99841        0.38000       -1.78871
H          5.30849       -1.61506       -3.31062
H          5.64454       -2.62052       -1.90729
H          7.68734       -1.21728       -1.38781
H          7.32980       -0.20209       -2.78829
H          7.52676       -2.22686       -4.27850
H          7.97519       -3.20078       -2.86660
H          9.50685       -0.83537       -3.71751
H          9.93075       -2.37627       -4.04748
