43

N          1.39738       -0.50682       -0.47153
C          2.79769       -0.25541       -0.05869
C          3.00171        1.19579        0.37100
C          4.40574        1.52530        0.89021
B          4.70480        3.09906        1.30144
C          3.58178        3.66529        2.38766
C          2.37745        4.39385        1.73138
C          1.19988        4.52818        2.67054
O          0.97673        5.50044        3.39569
N          0.34564        3.43552        2.67850
C          6.23652        3.19214        1.92514
C          6.78438        4.59475        1.97859
O          8.10970        4.62444        2.58370
C          8.66023        5.91638        2.64318
C         10.02988        5.77922        3.29364
O         10.64543        7.06393        3.38571
C         11.92093        6.99540        3.98450
H          1.31098       -1.43615       -0.88762
H          1.14710        0.15583       -1.20946
H          3.53479       -0.49798       -0.85123
H          3.01938       -0.92211        0.79192
H          2.24569        1.41852        1.14598
H          2.76219        1.85527       -0.48611
H          5.14187        1.20919        0.12404
H          4.60169        0.87377        1.76952
H          4.64527        3.79974        0.26561
H          4.02100        4.36366        3.12280
H          3.20050        2.82044        2.99768
H          2.06458        3.85277        0.82441
H          2.68479        5.40082        1.41969
H          0.66599        2.56405        2.26865
H         -0.27782        3.36304        3.47526
H          6.92884        2.57553        1.32164
H          6.25786        2.76816        2.94845
H          6.12643        5.26448        2.56870
H          6.85857        5.02355        0.95936
H          8.02723        6.60717        3.23970
H          8.76706        6.36487        1.63225
H         10.65850        5.09277        2.69334
H          9.91758        5.33347        4.30125
H         12.32046        8.01758        4.02672
H         12.61694        6.36218        3.39870
H         11.87116        6.58645        5.01338
