30

N          3.77801       -0.20608       -1.56995
C          5.13680       -0.31285       -1.01776
C          5.56771        0.99188       -0.32727
C          4.73318        1.37655        0.89829
Nb         5.42834        3.17535        1.85517
S          3.74279        4.13163        3.36621
O          2.95769        2.88071        3.55648
O          4.05875        4.96375        4.53595
C          2.40185        5.30176        2.53595
C          1.48079        4.66125        1.45997
F          0.59205        3.81450        2.01021
F          0.76893        5.62195        0.79905
F          2.19562        3.98757        0.53116
F          1.58564        5.76760        3.52638
F          3.02727        6.37550        1.97386
C          7.57539        2.77765        2.37742
F          7.73834        1.68343        3.23693
F          8.34838        2.39294        1.26929
F          8.28293        3.79656        2.96537
H          3.50167       -1.08109       -2.01593
H          3.75385        0.51275       -2.29615
H          5.90199       -0.57378       -1.77896
H          5.13108       -1.12653       -0.27423
H          5.53508        1.80044       -1.08128
H          6.62975        0.88582       -0.05476
H          4.79061        0.60516        1.69185
H          3.66645        1.50408        0.64637
H          4.87107        4.63910        1.05408
H          5.67578        3.09437        3.59273
H          6.54220        4.11465        0.88191
