15

O          1.22836        0.06261        0.22010
Al         2.73978       -0.14363       -0.58796
S          3.78995        2.04158       -0.58974
O          2.93775        2.92393       -1.40967
O          4.24559        2.52601        0.72326
C          5.42356        1.95336       -1.61434
F          6.28346        1.05959       -1.07975
F          5.17807        1.58050       -2.89503
F          6.02478        3.16438       -1.63818
S          4.03641       -1.46114        0.96279
O          5.46030       -1.65939        0.72987
O          3.57114       -1.28614        2.33590
F          3.35255       -2.94810        0.50764
H          1.24319        0.07211        1.18628
H          2.82319       -0.73162       -2.05881
