15

N          1.16874        0.02820       -0.29433
In         3.14150       -0.61132        0.26296
C          4.30720        1.14609        1.34381
C          4.18938        2.57935        0.79888
F          4.59810        2.64397       -0.49679
F          2.90101        3.01392        0.84104
F          4.93145        3.51137        1.48373
F          3.95252        1.25561        2.70025
F          5.69195        0.88814        1.35371
N          4.16545       -0.90850       -1.59894
H          1.22089        1.00207       -0.61020
H          0.57466        0.07120        0.53945
H          3.15935       -1.96085        1.39458
H          5.06379       -0.41651       -1.56057
H          3.62959       -0.39449       -2.30660
