38

N          1.23975        0.37401        0.65668
C          2.61041        0.19691        0.12094
C          3.01694       -1.27866        0.10533
C          4.41225       -1.56563       -0.45865
Ga         5.04402       -3.47172       -0.00183
C          3.83063       -4.89488       -0.83992
C          3.38458       -4.68724       -2.29264
C          4.57881       -4.70253       -3.25646
C          2.33259       -5.71983       -2.73741
C          7.07237       -3.67733       -0.33954
C          7.80011       -4.38118        0.80716
S          7.45196       -6.18059        0.78866
C          8.22086       -6.65546        2.36094
H          1.06633        1.35818        0.87173
H          1.17525       -0.12383        1.54827
H          3.37454        0.75973        0.69551
H          2.62682        0.59807       -0.90691
H          2.25245       -1.84310       -0.45694
H          2.96009       -1.65514        1.14614
H          5.14650       -0.88005        0.00481
H          4.43155       -1.35518       -1.54348
H          4.89811       -3.56902        1.62549
H          2.93713       -4.95124       -0.19201
H          4.33140       -5.87680       -0.74593
H          2.91341       -3.68832       -2.36952
H          5.10095       -5.67258       -3.20243
H          5.30755       -3.92412       -2.99034
H          4.26636       -4.54383       -4.30196
H          2.75244       -6.73862       -2.68697
H          1.98373       -5.54773       -3.77140
H          1.45537       -5.69341       -2.07294
H          7.48144       -2.65353       -0.41084
H          7.31497       -4.16990       -1.29709
H          7.43818       -3.99799        1.77717
H          8.90216       -4.27252        0.77749
H          8.10388       -7.74167        2.47271
H          7.72505       -6.15795        3.20779
H          9.29499       -6.41438        2.37876
