44

N          2.29863        3.85562       -2.42778
C          1.84429        2.55381       -1.86587
Al         2.86528        2.10193       -0.19293
S          2.65257       -0.30260       -0.06700
O          1.23974       -0.73994        0.09712
O          3.41893       -0.95316       -1.16905
C          3.48652       -0.87249        1.46176
C          4.85896        2.40173       -0.35101
C          5.50669        3.39245        0.41985
C          6.88453        3.61838        0.34349
C          7.70180        2.85279       -0.51466
C          7.06724        1.86178       -1.29018
C          5.68674        1.64779       -1.21118
Si         9.55732        3.11676       -0.54978
C         10.25698        2.88078        1.21223
C          9.82040        1.57260        1.88133
C         10.41860        1.35885        3.25365
F         10.09381        2.35107        4.13110
F          9.99768        0.18785        3.81508
F         11.78633        1.30153        3.22449
C         10.39783        1.87913       -1.70951
C         10.01137        4.87596       -1.08179
H          1.94150        3.99191       -3.37698
H          3.31656        3.85864       -2.51174
H          1.90855        1.71658       -2.58883
H          0.77746        2.64656       -1.60043
H          2.32286        2.66720        1.22859
H          2.97698       -0.43346        2.32785
H          4.54060       -0.57102        1.42611
H          3.39243       -1.96666        1.46278
H          4.91579        4.00078        1.11304
H          7.32963        4.39969        0.97081
H          7.66067        1.23628       -1.96446
H          5.24298        0.84759       -1.81122
H          9.92969        3.73424        1.82728
H         11.35670        2.93562        1.16249
H         10.10553        0.69386        1.28306
H          8.72708        1.53819        1.99740
H         10.19692        0.83871       -1.41714
H         11.48793        2.02592       -1.70764
H         10.04449        2.00377       -2.74297
H          9.52041        5.61839       -0.43642
H          9.68571        5.06782       -2.11383
H         11.09731        5.04503       -1.02856
