18

I          2.47659        1.83791       -3.42249
N          2.73127        2.72283       -1.54004
S          3.23854        1.78046       -0.38362
O          3.03157        2.50078        0.87330
O          2.92886        0.35170       -0.42954
C          5.16203        1.77544       -0.49434
C          6.02338        1.27676        0.71879
C          5.85627       -0.18219        1.29301
C          6.09954       -1.41239        0.34656
F          7.31762       -1.34294       -0.23585
F          6.07390       -2.53838        1.10923
F          5.16935       -1.53223       -0.59913
F          6.79991       -0.29843        2.28762
F          4.64051       -0.32382        1.86026
F          7.35062        1.38992        0.35955
F          5.82449        2.10499        1.77771
F          5.55729        1.04283       -1.58657
F          5.58003        3.06331       -0.69904
