60

C          0.73862       -0.06280        0.21517
C          2.26948       -0.05430        0.16677
C          2.83837       -0.51356       -1.18034
C          4.36904       -0.49595       -1.25050
C          4.92965       -0.97277       -2.59473
C          6.45785       -0.90986       -2.69134
C          7.00701       -1.40531       -4.03568
C          8.53300       -1.31440       -4.17193
Si         9.22690       -1.99884       -5.82250
C          8.71091       -3.73928       -6.13932
C          7.38290       -4.05927       -6.55855
C          6.95340       -5.35504       -6.74590
C          7.81326       -6.49917       -6.54257
C          9.15793       -6.16507       -6.12027
C          9.56337       -4.85074       -5.93024
N          7.32042       -7.71717       -6.75813
C          8.20682       -8.82946       -6.56787
C          7.47018      -10.14209       -6.86377
C          8.34980      -11.39242       -6.78947
C          7.59229      -12.67618       -7.11758
N          8.47362      -13.85953       -7.03776
C          8.61321       -0.83128       -7.19532
C         11.11577       -1.81623       -5.71579
H          0.35978        0.26539        1.19400
H          0.33975       -1.07080        0.02524
H          0.31222        0.60641       -0.54770
H          2.66687       -0.70137        0.96742
H          2.63939        0.96130        0.39030
H          2.43051        0.12624       -1.98352
H          2.47530       -1.53367       -1.39846
H          4.77898       -1.12564       -0.44077
H          4.73037        0.52828       -1.04639
H          4.49091       -0.36527       -3.40669
H          4.59613       -2.00818       -2.78319
H          6.90269       -1.50972       -1.87723
H          6.79265        0.12938       -2.51771
H          6.52598       -0.82829       -4.84600
H          6.69273       -2.45105       -4.18899
H          9.01045       -1.89195       -3.35998
H          8.86603       -0.26708       -4.04293
H          6.66736       -3.24991       -6.74575
H          5.93068       -5.56387       -7.07080
H          9.87897       -6.96625       -5.94672
H         10.59703       -4.67898       -5.60754
H          8.62230       -8.88706       -5.52973
H          9.10982       -8.78211       -7.22955
H          7.01986      -10.05408       -7.86733
H          6.62397      -10.22987       -6.16080
H          8.80065      -11.49157       -5.78754
H          9.19510      -11.28591       -7.49561
H          7.10711      -12.55977       -8.10827
H          6.77931      -12.81891       -6.38635
H          9.25187      -13.74254       -7.69061
H          7.97050      -14.69300       -7.34685
H          7.52476       -0.91027       -7.32917
H          9.08004       -1.09811       -8.15427
H          8.85167        0.22034       -6.97279
H         11.52954       -2.40857       -4.88711
H         11.39526       -0.76468       -5.55108
H         11.59465       -2.15794       -6.64431
