13

Cl         1.19224        0.26437        0.25370
N          2.98126        0.09643        0.07158
C          3.18919       -0.86948       -0.97411
C          4.71109       -0.96298       -1.07596
C          5.28262       -1.91187       -2.10550
O          4.65490       -2.62899       -2.88689
N          6.67151       -1.93537       -2.12653
H          2.78311       -0.59054       -1.98201
H          2.78362       -1.89653       -0.77560
H          5.09966       -1.23139       -0.07422
H          5.09899        0.05745       -1.26275
H          7.22700       -1.36053       -1.50755
H          7.13060       -2.54316       -2.79265
