17

Cl         3.65086       -0.57579       -1.76964
Nb         4.19828        0.62789        0.22383
C          4.50955       -0.80306        1.83722
C          3.60817       -1.15429        3.00837
C          4.08766       -2.17332        4.04434
O          3.39431       -2.54032        4.99617
N          5.35025       -2.66468        3.84912
I          6.10387        2.66125        0.27752
H          2.58366        0.23437        0.71564
H          3.54142        1.44792        1.62451
H          2.95136        1.79770       -0.06546
H          5.47495       -0.35759        2.17552
H          4.76377       -1.70138        1.23026
H          2.64153       -1.53121        2.63936
H          3.35333       -0.24158        3.56932
H          5.90931       -2.33632        3.07039
H          5.72842       -3.32379        4.51724
