19

O          1.11003        0.82487        0.06688
Ga         2.58354       -0.38245       -0.06935
C          3.36656        0.10841       -1.91145
O          4.55689       -0.74097       -2.24332
C          5.10449       -0.57063       -3.42646
F          5.60005        0.69855       -3.65790
F          6.16091       -1.42438       -3.56594
F          4.26453       -0.81819       -4.49540
C          3.86729       -0.07840        1.46569
C          4.96243       -1.14878        1.57647
H          0.31087        0.29400       -0.05594
H          1.99927       -1.89246       -0.10860
H          3.69922        1.15680       -1.96037
H          2.62406       -0.05760       -2.70662
H          3.26506       -0.05520        2.38999
H          4.32149        0.92280        1.37188
H          4.52538       -2.15634        1.67388
H          5.63842       -1.00445        2.44123
H          5.59512       -1.17284        0.67480
