54

S         10.92609        2.48990        2.81053
C          9.59730        3.69906        2.37859
C          8.27690        2.94939        2.20826
C          7.11103        3.85161        1.82972
P          5.53824        2.79113        1.35772
C          4.78151        2.87598        3.16430
C          4.40318        4.04359        3.84759
C          3.91143        4.00707        5.15393
C          3.79429        2.77830        5.82223
C          4.16547        1.59740        5.16012
C          4.64576        1.66289        3.85209
C          3.29166        2.74822        7.23480
C          1.73181        2.82345        7.45034
C          0.81056        1.65848        6.90738
C          1.01802        0.20655        7.49339
C         -0.22790       -0.74136        7.27987
C          0.08839       -2.27343        7.46518
F          0.73024       -2.49885        8.62844
F         -1.07871       -2.95297        7.48537
F          0.83353       -2.74866        6.45508
F         -1.19131       -0.42269        8.18247
F         -0.72749       -0.58719        6.02726
F          2.08677       -0.37016        6.88384
F          1.25444        0.26854        8.82832
F         -0.47163        2.03239        7.21056
F          0.92868        1.59483        5.56134
F          1.47079        2.95469        8.78421
F          1.27693        3.95226        6.83242
F          3.71406        1.62215        7.91143
F          3.76778        3.83496        7.94630
C          4.50543        4.31207        0.69237
C          4.15494        4.15352       -0.79760
C          2.75828        3.62715       -1.08062
O          1.98240        4.14677       -1.86726
O          2.40255        2.50563       -0.41443
H         11.94902        3.37367        2.88562
H          9.87533        4.20931        1.44580
H          9.52513        4.44411        3.18282
H          8.04257        2.40888        3.14107
H          8.40127        2.17524        1.42974
H          7.35516        4.43412        0.92463
H          6.89053        4.56569        2.63972
H          4.32821        1.88599        0.96862
H          6.08879        2.58327       -0.01205
H          6.19893        1.54319        1.78869
H          4.49924        5.01599        3.35890
H          3.63549        4.93136        5.66380
H          4.09287        0.63813        5.67292
H          4.94719        0.74186        3.34090
H          5.08245        5.23855        0.83573
H          3.59080        4.39838        1.29654
H          4.87304        3.42995       -1.24368
H          4.25662        5.09165       -1.35746
H          3.17153        2.20443        0.17223
