19

Cl         1.50989       -0.25779        1.37248
Nb         3.40103       -0.20821       -0.06038
S          5.06827        1.25713       -1.11392
O          5.87962        1.32395       -2.33407
O          3.57586        1.66837       -1.22018
C          5.68771        2.79020       -0.14532
F          5.05354        2.86889        1.05060
F          7.01540        2.69426        0.09288
F          5.46441        3.93958       -0.81865
C          5.09915       -1.34868        0.90011
C          4.92471       -2.76306        1.50317
F          4.89250       -3.70980        0.53783
F          5.94857       -3.09992        2.34699
F          3.78015       -2.85379        2.22229
F          6.31085       -1.39153        0.23443
F          5.32658       -0.51163        2.03861
H          2.43816       -0.65310       -1.41435
H          3.24934       -1.87062       -0.49570
H          4.17650       -0.72574       -1.57176
