66

C          9.42364       -0.72666       -5.91770
C          9.00797       -0.53316       -4.45757
C          9.42387       -1.69556       -3.55137
C          9.01098       -1.51859       -2.08731
C          9.41460       -2.69184       -1.18943
C          9.00510       -2.51993        0.27641
C          9.37898       -3.71387        1.16409
C          8.96014       -3.54887        2.63237
Si         9.34150       -5.00896        3.79615
C          8.65656       -4.61235        5.49929
C          7.26901       -4.45036        5.68805
C          6.74057       -4.11260        6.93386
C          7.55807       -3.91949        8.06691
C          8.94271       -4.09685        7.87543
C          9.47769       -4.43010        6.62800
B          6.86810       -3.49628        9.45468
S          6.16210       -5.06407       10.40833
O          5.35424       -4.71324       11.57865
O          5.57878       -5.96973        9.41349
C          7.60623       -6.20517       11.13597
C          7.89075       -6.04991       12.66049
C          9.16457       -6.79897       13.19835
F          9.11819       -8.11891       12.91616
F         10.30072       -6.29200       12.68384
F          9.22711       -6.66656       14.54700
F          8.06433       -4.73893       12.96828
F          6.83438       -6.54223       13.36397
F          7.25080       -7.49766       10.90709
F          8.75633       -5.95340       10.44361
C          7.67073       -2.45875       10.42812
C          7.86643       -1.02781        9.83366
F          8.60765       -1.04327        8.70086
F          6.67484       -0.45276        9.53904
F          8.50109       -0.20495       10.71331
F          7.02336       -2.23363       11.63241
F          8.96519       -2.87102       10.77049
C          8.52056       -6.57379        3.10812
C         11.21420       -5.28568        3.87141
H          9.11307        0.12133       -6.54459
H          8.97307       -1.63704       -6.34108
H         10.51566       -0.82715       -6.00983
H          7.91405       -0.40239       -4.39954
H          9.44490        0.40281       -4.07004
H         10.51928       -1.82645       -3.60839
H          8.98823       -2.63268       -3.94186
H          7.91702       -1.37820       -2.03173
H          9.45486       -0.58735       -1.69312
H         10.50823       -2.83620       -1.24815
H          8.96642       -3.62095       -1.58486
H          7.91452       -2.35622        0.33555
H          9.46979       -1.60488        0.68397
H         10.46959       -3.87608        1.10077
H          8.91621       -4.62361        0.74286
H          7.87390       -3.35890        2.69131
H          9.43580       -2.65026        3.06254
H          6.58156       -4.58577        4.84621
H          5.66006       -3.99583        7.04161
H          9.62224       -3.96585        8.71858
H         10.56147       -4.54806        6.53782
H          5.75676       -3.03013        9.27230
H          7.42824       -6.45706        3.05862
H          8.72893       -7.43345        3.76086
H          8.88166       -6.81763        2.09810
H         11.73981       -4.39035        4.23321
H         11.61595       -5.53314        2.87792
H         11.46249       -6.11602        4.54784
