20

Cl         2.81667       -0.63700       -2.59966
In         3.43800       -0.35226       -0.20578
C          1.40329       -0.16867        0.87520
F          0.26904       -0.48401        0.15377
F          1.31086       -0.95999        2.02252
F          1.15848        1.12318        1.34731
C          4.40762        1.64353       -0.05570
C          5.93791        1.60619       -0.08260
C          6.51200        1.04498       -1.38796
C          8.03135        0.86901       -1.35984
H          4.27893       -1.81542        0.29887
H          4.04135        2.11272        0.87072
H          4.01813        2.24669       -0.89157
H          6.31131        0.99100        0.75660
H          6.36956        2.61681        0.07717
H          6.22345        1.70659       -2.22254
H          6.03284        0.07610       -1.60567
H          8.54534        1.82414       -1.16684
H          8.41289        0.46968       -2.31143
H          8.32762        0.16901       -0.56305
