32

F          4.35227        0.81200       -0.12113
P          2.79978        0.11721        0.15278
C          2.16439        1.30948       -1.39843
C          0.63915        1.41855       -1.70466
C         -0.05446        0.22950       -2.45023
F          0.09912       -0.94348       -1.80904
F         -1.39067        0.47689       -2.53329
F          0.40854        0.09120       -3.70895
F         -0.04257        1.60635       -0.53202
F          0.37583        2.51826       -2.49870
F          2.51437        2.61061       -1.07245
F          2.77158        1.04887       -2.62408
C          3.29013       -1.35506       -0.99823
C          2.59384       -2.55800       -0.81747
C          2.94055       -3.71583       -1.51906
C          4.00445       -3.70136       -2.43012
C          4.70996       -2.51251       -2.60994
C          4.36008       -1.35133       -1.90031
C          5.86065       -2.45337       -3.57652
F          6.16418       -3.66927       -4.12260
F          5.61583       -1.61347       -4.62678
F          7.00775       -1.99840       -2.99000
C          2.20071       -5.00684       -1.31354
F          1.15310       -4.89715       -0.45641
F          1.69603       -5.51154       -2.48477
F          3.01151       -5.99486       -0.81052
H          2.46556        1.25425        0.98674
H          3.32133       -0.65000        1.28176
H          1.47751       -0.45974        0.31897
H          1.76511       -2.58449       -0.10552
H          4.27937       -4.59984       -2.98095
H          4.93027       -0.43394       -2.04238
