36

N          0.79603       -4.64312       -0.64503
C          2.24114       -4.66222       -0.34002
C          2.96101       -3.49996       -1.01821
C          4.46564       -3.49625       -0.73294
C          5.15050       -2.31153       -1.43015
C          6.69519       -2.33316       -1.53340
C          7.18287       -0.97954       -2.07987
C          6.67361       -0.55918       -3.52109
C          7.48797        0.61241       -4.19369
F          7.62419        1.67761       -3.37761
F          8.70942        0.21560       -4.59166
F          6.81469        1.02672       -5.29903
F          6.72145       -1.59184       -4.39376
F          5.38059       -0.11833       -3.44438
F          6.80272        0.08082       -1.26561
F          8.55554       -0.90800       -2.15406
S          7.36267       -2.60203        0.20743
O          6.79144       -1.59146        1.10038
O          7.13302       -4.00680        0.52884
C          9.14533       -2.38018        0.16702
C          7.25665       -3.58656       -2.47066
O          6.35898       -4.20379       -3.06826
O          8.49770       -3.72352       -2.44646
H          0.34410       -5.46575       -0.24184
H          0.66876       -4.72138       -1.65674
H          2.73867       -5.60705       -0.63487
H          2.35247       -4.57385        0.75323
H          2.49577       -2.55369       -0.69281
H          2.80163       -3.56900       -2.11017
H          4.91336       -4.43002       -1.09736
H          4.63247       -3.45284        0.35294
H          4.82114       -1.37273       -0.95893
H          4.80095       -2.31150       -2.47236
H          9.38509       -1.31418        0.12862
H          9.50447       -2.92820       -0.71391
H          9.48016       -2.83222        1.10916
