103

C          2.97762       -2.67179        2.53531
C          3.36147       -1.54864        1.56702
C          4.03277       -0.34817        2.25268
C          4.40646        0.81011        1.31831
Al         5.17594        2.48558        2.17055
C          4.11781        2.91982        3.86015
C          4.34685        2.31767        5.11756
C          3.54560        2.57622        6.23400
C          2.45261        3.46640        6.15886
C          2.21636        4.08541        4.91476
C          3.02861        3.81591        3.80778
Si         1.41671        3.83981        7.67203
C          2.49238        4.77673        8.94916
C          3.26848        5.93731        8.31495
C          4.05348        6.83403        9.25613
C          5.22692        6.22994       10.11301
C          6.35291        5.37652        9.41447
C          7.28685        6.00070        8.29875
C          8.17053        7.24822        8.67632
C          9.35348        7.52532        7.67133
F          8.91663        7.55523        6.40160
F          9.89011        8.72832        7.97052
F         10.32010        6.59779        7.78355
F          7.39557        8.35881        8.69821
F          8.72785        7.07427        9.90410
F          8.13527        4.99501        7.94182
F          6.52546        6.32082        7.22550
F          7.16102        4.91630       10.40957
F          5.75998        4.30155        8.82746
F          5.84274        7.24814       10.78259
F          4.68132        5.39668       11.04733
F          4.59405        7.88322        8.54288
F          3.20923        7.40273       10.19054
C         -0.07332        4.92236        7.23091
C          0.80755        2.25763        8.51182
C          7.15177        2.24998        2.62425
C          7.95109        3.35301        3.00040
C          9.32699        3.24800        3.21876
C          9.99919        2.01417        3.07793
C          9.21558        0.89913        2.72425
C          7.83814        1.02341        2.50419
Si        11.85595        1.91942        3.30721
C         12.31562        2.58376        5.05003
C         11.50285        2.15174        6.28418
C         11.70928        0.75403        6.84020
C         13.14464        0.30728        7.30849
C         13.93141        1.17219        8.36482
C         13.39647        1.35554        9.84371
C         13.15322        0.06581       10.71557
C         13.09068        0.34285       12.26666
F         12.24919        1.35472       12.54625
F         12.64365       -0.77060       12.88169
F         14.30707        0.63531       12.76125
F         11.97714       -0.49932       10.36112
F         14.15725       -0.82870       10.51695
F         14.35184        2.10235       10.47511
F         12.25259        2.07985        9.81127
F         15.17901        0.63459        8.45697
F         14.06142        2.43727        7.87080
F         13.06447       -0.95932        7.80948
F         13.95674        0.26330        6.21194
F         10.88396        0.58092        7.93293
F         11.34257       -0.20280        5.92503
C         12.52239        0.18369        2.96259
C         12.73559        3.11096        2.12270
H          2.48912       -3.51499        2.02302
H          2.28489       -2.30382        3.30809
H          3.86467       -3.06586        3.05533
H          2.46195       -1.19292        1.03469
H          4.03656       -1.94182        0.78681
H          4.93071       -0.71324        2.78658
H          3.35710        0.01897        3.04653
H          3.50168        1.12668        0.76415
H          5.10536        0.44600        0.54005
H          5.02850        3.78304        1.17264
H          5.18304        1.61937        5.23292
H          3.77519        2.07138        7.17993
H          1.38384        4.78865        4.80631
H          2.80897        4.32594        2.86318
H          3.18604        4.04849        9.39483
H          1.85081        5.14235        9.76646
H          2.58150        6.63693        7.81108
H          3.95109        5.56908        7.53641
H          0.22617        5.89836        6.82346
H         -0.69300        5.10603        8.12080
H         -0.70357        4.43053        6.47645
H          1.64930        1.59453        8.75701
H          0.13348        1.70188        7.84482
H          0.26511        2.47559        9.44370
H          7.48392        4.33854        3.10685
H          9.89113        4.14962        3.48717
H          9.68764       -0.08190        2.60853
H          7.28154        0.12621        2.21222
H         12.15845        3.67156        4.95606
H         13.39640        2.46790        5.21904
H         10.42567        2.18896        6.05347
H         11.66673        2.84406        7.12324
H         12.03313       -0.58857        3.56797
H         13.60277        0.13634        3.16275
H         12.36737       -0.06730        1.90307
H         12.36278        4.13806        2.24434
H         12.55712        2.81658        1.07887
H         13.82302        3.12122        2.29227
