33

O          1.36740        0.24548        0.19928
C          2.61842        0.26519        0.20751
O          3.42434        1.08287        0.71727
C          3.31958       -0.91960       -0.64923
C          3.09330       -2.30456        0.02837
C          1.65562       -2.85846        0.36647
C          1.60614       -4.41138        0.65548
F          2.52802       -4.79900        1.55886
F          0.38279       -4.72186        1.16055
F          1.76874       -5.14933       -0.46346
F          1.16764       -2.26441        1.48056
F          0.77284       -2.67424       -0.66140
F          3.67157       -3.29856       -0.76967
F          3.76009       -2.34380        1.22542
C          2.71400       -0.89326       -2.06629
C          2.94628        0.43965       -2.79159
C          2.14842        0.46202       -4.10207
C          2.48441        1.56167       -5.08682
C          2.24030        3.03255       -4.62527
F          0.96913        3.18520       -4.18996
F          3.07836        3.38427       -3.63232
F          2.43277        3.89406       -5.65440
F          3.80323        1.49455       -5.48292
F          1.72353        1.40087       -6.23235
N          4.77010       -0.74198       -0.63783
H          1.63240       -1.05158       -1.97802
H          3.13086       -1.71778       -2.67254
H          4.01492        0.58858       -3.00772
H          2.63150        1.26501       -2.13780
H          1.06991        0.52080       -3.89329
H          2.31565       -0.47098       -4.66571
H          4.90907        0.13448       -0.11065
H          5.14164       -0.63892       -1.58000
