51

C          9.05671        5.92303       -1.03693
C          8.45035        4.52673       -0.87793
C          8.96303        3.52506       -1.91665
C          8.35911        2.12392       -1.78320
C          8.87867        1.13620       -2.83169
C          8.29314       -0.27462       -2.71623
C          8.85729       -1.24462       -3.76245
C          8.33881       -2.68693       -3.64546
Si         9.09728       -3.89588       -4.90989
C          8.60852       -5.67089       -4.55084
C          7.78910       -6.05456       -3.46949
C          7.56773       -7.40467       -3.16663
C          8.15251       -8.44908       -3.91043
C          8.93047       -8.05395       -5.01739
C          9.15616       -6.71005       -5.33240
In         7.87889      -10.60640       -3.33831
F          6.18778      -10.45949       -2.14572
C          7.26941      -11.78351       -5.13040
C          8.56961       -3.36249       -6.65478
C         10.98915       -3.75620       -4.81395
H          8.67092        6.62264       -0.28172
H          8.82935        6.34361       -2.02823
H         10.15224        5.89411       -0.93572
H          7.35123        4.59126       -0.94880
H          8.66584        4.14290        0.13367
H         10.06300        3.45598       -1.84086
H          8.75583        3.91568       -2.92903
H          7.25927        2.19206       -1.85688
H          8.57054        1.72962       -0.77354
H          9.97914        1.07581       -2.75548
H          8.66962        1.53541       -3.84034
H          7.19390       -0.22917       -2.81101
H          8.49422       -0.67450       -1.70680
H          9.95789       -1.24099       -3.67797
H          8.63519       -0.84602       -4.76824
H          7.24021       -2.70251       -3.75258
H          8.54676       -3.07414       -2.63314
H          7.32286       -5.28716       -2.84176
H          6.92123       -7.65738       -2.31993
H          9.38805       -8.81575       -5.65932
H          9.78585       -6.46760       -6.19748
H          9.15711      -11.26925       -2.30176
H          6.42205      -12.43437       -4.87072
H          8.08580      -12.41479       -5.51134
H          6.94795      -11.10837       -5.93695
H          7.47427       -3.35282       -6.75050
H          8.95925       -4.06301       -7.40768
H          8.94502       -2.35885       -6.90566
H         11.34180       -3.99376       -3.79977
H         11.35126       -2.75213       -5.07992
H         11.45877       -4.47708       -5.49872
