57

O          5.57301       -2.74822        1.67326
C          4.96374       -1.56254        2.04971
O          4.96027       -1.26916        3.22873
C          4.35511       -0.78032        0.93579
Al         5.47478       -0.25767       -0.66850
S          6.97594        1.55147       -0.10913
O          7.92791        1.87169       -1.17021
O          6.35625        2.66266        0.60724
F          7.95024        0.81218        1.07158
C          6.64290       -1.74836       -1.34079
C          6.24890       -2.44869       -2.50120
C          7.02925       -3.46619       -3.06013
C          8.25690       -3.83959       -2.48142
C          8.65848       -3.15098       -1.31812
C          7.87304       -2.13633       -0.76425
Si         9.35742       -5.17002       -3.22409
C         11.09722       -4.44609       -3.52075
C         11.08554       -3.13831       -4.32426
C         12.48147       -2.61380       -4.60982
C         12.58525       -1.32812       -5.50797
C         11.84164       -0.00140       -5.09386
C         12.16656        0.73826       -3.73119
C         13.64544        1.21757       -3.48593
C         13.80968        2.24340       -2.30091
F         13.24597        1.78023       -1.17549
F         15.13300        2.41843       -2.07966
F         13.27649        3.43650       -2.60807
F         14.42494        0.14659       -3.19737
F         14.12732        1.82328       -4.60482
F         11.37236        1.84142       -3.72563
F         11.79656       -0.06912       -2.70825
F         12.05700        0.88593       -6.10447
F         10.50758       -0.26876       -5.05149
F         13.90139       -1.02232       -5.68804
F         12.06353       -1.65469       -6.73149
F         13.16994       -2.36692       -3.44786
F         13.21683       -3.56167       -5.29838
C          9.54908       -6.63499       -2.04557
C          8.66203       -5.77328       -4.87697
H          5.67699       -2.74960        0.70122
H          3.83894        0.09481        1.34967
H          3.59896       -1.41456        0.43686
H          4.56929        0.40697       -1.82269
H          5.31199       -2.17877       -2.99993
H          6.67806       -3.96761       -3.96687
H          9.60721       -3.40328       -0.83241
H          8.23557       -1.62310        0.13017
H         11.70592       -5.20766       -4.03349
H         11.57263       -4.27347       -2.54240
H         10.52952       -2.36352       -3.77867
H         10.58469       -3.26635       -5.29556
H          9.92943       -6.30444       -1.06871
H         10.24623       -7.38600       -2.44577
H          8.58041       -7.12524       -1.87406
H          8.55144       -4.95440       -5.60194
H          7.67300       -6.23552       -4.74767
H          9.32721       -6.52840       -5.32080
