44

O          1.85023       -0.39497        1.10642
C          3.04857        0.17715        1.47990
O          3.12092        1.38766        1.55426
C          4.18594       -0.78966        1.67029
C          4.90589       -1.14397        0.30542
C          5.73744       -2.38519        0.38833
C          5.11644       -3.63862        0.39586
C          3.69063       -3.80232        0.20155
C          3.06965       -5.04111        0.24996
C          3.77929       -6.23276        0.48235
C          5.17535       -6.10534        0.64235
C          5.82430       -4.88250        0.60622
C          5.96916       -7.36252        0.84082
F          5.46588       -8.15059        1.84577
F          5.97484       -8.16333       -0.27797
F          7.28030       -7.14857        1.15078
C          1.58342       -5.13216        0.06526
F          0.94701       -5.64535        1.16966
F          0.98204       -3.92947       -0.18364
F          1.22556       -5.95350       -0.97386
C          7.20678       -2.23143        0.65157
C          7.60942       -2.20911        2.14959
C          9.12982       -2.09213        2.31452
C          9.68498       -2.20579        3.71781
C          9.25677       -1.10394        4.74039
F          7.94849       -1.19946        5.05579
F          9.96519       -1.20774        5.88769
F          9.47813        0.13121        4.22659
F          9.36472       -3.41286        4.29319
F         11.07040       -2.14731        3.67373
H          1.95000       -1.36521        1.09825
H          3.82474       -1.73037        2.11388
H          4.91294       -0.34104        2.35748
H          5.52046       -0.27430        0.02426
H          4.12843       -1.22418       -0.47562
H          3.07931       -2.93355       -0.03508
H          3.28090       -7.19692        0.54385
H          6.90348       -4.86813        0.74799
H          7.56811       -1.29128        0.19250
H          7.78482       -3.03760        0.16005
H          7.24457       -3.12427        2.63825
H          7.10498       -1.36559        2.64152
H          9.49236       -1.14030        1.89517
H          9.62821       -2.89698        1.74889
