72

C          8.16185        1.07184        4.27243
C          7.29836        0.62510        3.08043
C          5.98450       -0.06032        3.46882
In         4.66523       -0.68579        1.73780
C          5.92898       -0.52188       -0.13850
C          7.11532       -1.26866       -0.30317
C          7.89347       -1.20207       -1.46343
C          7.52862       -0.37565       -2.54779
C          6.36035        0.39501       -2.38891
C          5.59492        0.32206       -1.21656
Si         8.49977       -0.46013       -4.15187
C          8.43424       -2.26019       -4.77821
C          7.00762       -2.80583       -4.94415
C          6.93315       -4.29893       -5.28399
C          5.49561       -4.81003       -5.41935
C          5.38808       -6.30570       -5.72896
C          3.94421       -6.79495       -5.87545
C          3.82320       -8.29006       -6.18451
C          2.37458       -8.76064       -6.33535
C          7.76448        0.68753       -5.47038
C         10.32172        0.01096       -3.91043
C          2.97150        0.81848        1.51449
C          3.15649        2.13923        2.26574
C          1.89727        3.03606        2.20468
C          2.01764        4.36270        2.92500
C          0.71010        5.21401        2.95602
F          0.27806        5.48590        1.70045
F         -0.28103        4.55147        3.60078
F          0.89477        6.39452        3.59137
F          2.38162        4.19845        4.24541
F          2.97725        5.16829        2.34596
H          9.10835        1.53964        3.95057
H          8.41360        0.21422        4.91693
H          7.62273        1.80110        4.89788
H          7.89861       -0.04693        2.44346
H          7.09298        1.50508        2.44612
H          5.39111        0.61698        4.10931
H          6.19505       -0.95295        4.08275
H          4.02292       -2.34251        1.89989
H          7.44654       -1.93899        0.49784
H          8.79858       -1.81844       -1.52923
H          6.03264        1.05759       -3.19758
H          4.69437        0.94367       -1.15394
H          8.98097       -2.88043       -4.04549
H          8.99483       -2.34617       -5.72638
H          6.48095       -2.23556       -5.72976
H          6.44287       -2.62605       -4.01422
H          7.45274       -4.87232       -4.49588
H          7.48660       -4.49622       -6.22001
H          4.98062       -4.23777       -6.21170
H          4.94765       -4.59187       -4.48647
H          5.88778       -6.87993       -4.92880
H          5.94524       -6.53012       -6.65635
H          3.44418       -6.21810       -6.67404
H          3.38812       -6.56932       -4.94864
H          4.31661       -8.86610       -5.38340
H          4.38304       -8.51577       -7.10836
H          1.80033       -8.57766       -5.41483
H          2.31626       -9.83585       -6.55730
H          1.86661       -8.22343       -7.15078
H          6.71109        0.45152       -5.67693
H          8.32201        0.59174       -6.41435
H          7.81487        1.74035       -5.15743
H         10.78730       -0.59472       -3.11987
H         10.41780        1.06665       -3.61869
H         10.89775       -0.14038       -4.83618
H          2.05511        0.31441        1.86713
H          2.81656        1.01978        0.43961
H          4.01228        2.69997        1.85667
H          3.39576        1.95222        3.32439
H          1.04165        2.49674        2.63971
H          1.64003        3.25529        1.15680
