30

N          5.55342        2.89483        3.62030
C          5.67910        1.75556        2.68939
C          4.30889        1.16316        2.36046
C          4.39892       -0.15622        1.58178
Ga         5.01591       -1.84128        2.51585
C          3.82912       -2.60754        4.00301
C          3.32957       -3.89390        3.70370
C          2.45528       -4.58657        4.54598
C          2.02267       -3.99302        5.73645
C          2.48024       -2.71905        6.06144
C          3.38536       -2.03852        5.22265
C          3.78866       -0.67671        5.73184
O          3.04086        0.00176        6.42485
O          5.01753       -0.20893        5.44535
S          7.13955       -1.47392        3.56088
H          6.48684        3.23315        3.86361
H          5.16230        2.53468        4.49589
H          6.33228        0.95472        3.08100
H          6.15142        2.12142        1.76104
H          3.73084        1.92510        1.80518
H          3.76499        1.00802        3.30726
H          5.04532       -0.02933        0.69515
H          3.40324       -0.42128        1.18583
H          5.21443       -3.05407        1.48710
H          3.64710       -4.36740        2.76905
H          2.10748       -5.58698        4.27299
H          1.33174       -4.51596        6.40161
H          2.14615       -2.21650        6.97075
H          5.60416       -0.83188        4.91001
H          7.25207       -2.75693        3.97826
