15

S          1.67345        0.49124        0.90281
Ga         3.04544       -0.46198       -0.67853
C          4.42790        0.91345       -1.48157
C          5.05909        2.10395       -0.70857
C          5.90431        1.76179        0.56219
F          6.92818        0.93466        0.27165
F          6.43851        2.91133        1.06558
F          5.15363        1.20665        1.52308
F          5.89819        2.82624       -1.53410
F          4.06669        2.95328       -0.30589
F          5.48925        0.23656       -2.07367
F          3.75425        1.54156       -2.54290
I          4.37761       -2.35846        0.57750
H          1.22755        1.43582        0.04010
H          2.31677       -1.07529       -1.93337
