42

N          0.93652        1.85472       -0.86562
C          2.36671        2.19465       -0.70674
C          3.21528        0.97869       -1.09730
C          4.75986        1.09010       -0.98210
C          5.26962        1.17349        0.46785
C          4.69459        0.26234        1.64101
C          4.60853       -1.31611        1.67487
C          5.97560       -2.14323        1.74601
F          7.06093       -1.42863        1.44719
F          6.15256       -2.59490        3.02610
F          5.90414       -3.22604        0.95958
F          3.95536       -1.58066        2.86833
F          3.79614       -1.79722        0.71590
F          5.41441        0.59052        2.76528
F          3.40003        0.67095        1.86384
F          6.63320        1.07581        0.52431
F          5.00157        2.45944        0.98650
C          5.34246       -0.22511       -1.70018
O          5.29267       -0.20103       -2.95000
O          5.75406       -1.12382       -0.92642
C          5.22395        2.33552       -1.78004
C          6.73351        2.50436       -2.00525
C          6.96993        3.56638       -3.08751
C          8.43073        3.87843       -3.32979
C          8.68455        4.95407       -4.43125
F          8.18299        4.55366       -5.62325
F          8.08908        6.12794       -4.10467
F         10.00425        5.19324       -4.59572
F          9.04165        4.35918       -2.18933
F          9.13324        2.76294       -3.71973
H          0.35958        2.62879       -0.53129
H          0.71738        1.06094       -0.25880
H          2.62016        2.53034        0.31266
H          2.57765        3.03470       -1.38647
H          3.01885        0.74066       -2.15335
H          2.86773        0.10712       -0.52254
H          4.82207        3.25762       -1.32997
H          4.75020        2.20622       -2.76514
H          7.16261        1.54761       -2.33182
H          7.23962        2.80285       -1.07796
H          6.47466        4.51331       -2.81887
H          6.53838        3.23038       -4.04312
