20

C          0.99193       -0.10616       -0.41312
Al         2.78588        0.47234        0.24510
C          3.67664       -1.07228        1.37394
C          3.85954       -2.48606        0.79127
F          2.67251       -3.03050        0.43452
F          4.63956       -2.44064       -0.34099
F          4.46843       -3.37306        1.62896
F          4.97178       -0.70254        1.78762
F          2.96050       -1.28679        2.56607
C          4.16279        0.91069       -1.24001
C          3.77396        0.48820       -2.59788
O          3.28370        1.18443       -3.47207
O          3.95441       -0.86223       -2.88257
H          0.33657       -0.39830        0.42297
H          1.03549       -0.95745       -1.10996
H          0.48919        0.71659       -0.94643
H          2.78182        1.70498        1.30676
H          5.10037        0.43666       -0.91175
H          4.28314        2.00041       -1.21875
H          4.27247       -1.30309       -2.07473
