34

C          0.37617       -0.19356       -0.11122
O          1.77780       -0.02703       -0.10705
C          2.46472       -1.24348       -0.40257
C          3.96169       -0.97121       -0.45264
O          4.60738       -2.21833       -0.56428
C          6.02995       -2.08994       -0.87331
C          6.70466       -3.43199       -0.91031
Ga         8.54507       -3.38949       -1.79771
C         10.05251       -2.40375       -0.82508
C         11.07021       -1.79636       -1.80162
C         11.81235       -2.81837       -2.66990
C          9.49346       -1.32122        0.10549
Cl         9.16016       -5.62656       -1.92023
H         -0.07000        0.77318        0.15801
H          0.04978       -0.95602        0.62369
H          0.00114       -0.49693       -1.10891
H          2.12378       -1.65210       -1.37381
H          2.25402       -2.00493        0.37364
H          4.27201       -0.42750        0.46537
H          4.19536       -0.31301       -1.31547
H          6.48256       -1.42839       -0.10915
H          6.10590       -1.56560       -1.84834
H          6.12537       -4.11968       -1.54612
H          6.76142       -3.87421        0.09557
H          8.38926       -2.86877       -3.31610
H         10.56982       -3.16364       -0.21212
H         11.81725       -1.19330       -1.24028
H         10.55294       -1.07702       -2.46444
H         12.32805       -3.56590       -2.04788
H         12.56439       -2.33055       -3.31046
H         11.11612       -3.36776       -3.31850
H          8.92225       -0.55961       -0.45377
H         10.29444       -0.77534        0.64494
H          8.81342       -1.73903        0.86335
