23

N          2.74807        0.55727        0.86852
C          2.09295        0.01895       -0.20424
O          0.91942        0.30658       -0.45776
C          2.92036       -0.94324       -1.06103
C          4.36192       -1.23833       -0.65392
Nb         5.75788       -2.34480       -2.03543
S          4.06944       -3.91648       -2.92251
O          5.59054       -4.03379       -3.34084
O          3.44019       -5.17199       -2.46029
C          3.30981       -3.60728       -4.55062
Cl         7.90611       -1.54657       -2.73628
H          2.24925        1.18207        1.48814
H          3.70001        0.27032        1.06874
H          2.87675       -0.54412       -2.08764
H          2.33402       -1.87697       -1.09430
H          4.39999       -1.66296        0.35931
H          4.97377       -0.30693       -0.65603
H          6.47757       -2.27804       -0.42212
H          4.80206       -1.13742       -2.94756
H          5.21050       -3.59286       -0.90898
H          3.77170       -2.71387       -4.98325
H          2.23618       -3.45544       -4.38722
H          3.48613       -4.49838       -5.16625
