31

O          1.67740        0.41255       -2.57445
C          2.67261        1.10156       -2.29800
O          3.42393        1.84793       -2.96877
C          3.05807        1.15637       -0.75563
S          4.92558        0.93333       -0.67872
O          5.35542       -0.15318       -1.53717
O          5.62612        2.20856       -0.64060
C          5.19675        0.20094        1.10667
C          6.68185        0.30721        1.58246
F          7.52607       -0.21579        0.67522
F          7.03728        1.58058        1.82840
F          6.83601       -0.39087        2.74316
F          4.43691        0.86630        2.02750
F          4.85695       -1.10983        1.13011
C          2.65807        2.48969       -0.13197
C          1.13570        2.69208       -0.17165
C          0.78061        4.08708        0.35728
C         -0.70946        4.32319        0.49211
C         -1.09051        5.74999        0.99629
F         -0.53424        5.99650        2.20756
F         -0.65047        6.69808        0.13633
F         -2.42799        5.88848        1.11916
F         -1.36324        4.15435       -0.70479
F         -1.27675        3.44204        1.38794
F          2.54186        0.10005        0.00212
H          3.16804        3.27131       -0.71230
H          3.01360        2.55148        0.90831
H          0.64549        1.91950        0.43750
H          0.76841        2.56813       -1.19948
H          1.18457        4.86383       -0.30995
H          1.22479        4.25046        1.35195
