22

F          0.84042        0.49489       -2.00206
C          2.01394        0.23755       -1.24355
N          2.81075       -0.75043       -1.67493
C          2.36631       -2.02409       -1.75673
C          3.29335       -3.01177       -2.21540
C          2.94425       -4.35132       -2.33283
C          1.65629       -4.81039       -2.00975
C          0.73270       -3.85659       -1.56440
C          1.05768       -2.50617       -1.43504
C         -0.63705       -4.31466       -1.14813
F         -1.03049       -5.46337       -1.78161
F         -0.71136       -4.59245        0.19641
F         -1.61073       -3.39127       -1.39002
C          3.93795       -5.33791       -2.87282
F          5.22998       -4.91349       -2.78632
F          3.88571       -6.54682       -2.22837
F          3.72535       -5.62526       -4.20181
F          2.66815        1.45168       -1.22853
F          1.49425        0.11572        0.07231
H          4.29689       -2.67349       -2.47140
H          1.38744       -5.85977       -2.10280
H          0.30258       -1.80455       -1.08633
