41

F          2.60164       -1.58349        0.65527
Ta         2.87002        0.26123        0.44941
C          1.08313        0.76988       -0.94481
C          1.00614        0.24491       -2.40437
F          1.69448        1.02862       -3.26433
F          1.53122       -1.01416       -2.47971
F         -0.26889        0.16077       -2.89215
F          0.04999        0.04285       -0.29902
F          0.63370        2.08372       -1.02910
C          3.94927        1.15283       -1.21741
C          4.70220        0.62797       -2.29103
C          5.41333        1.44833       -3.16280
C          5.39781        2.84544       -2.99556
C          4.64055        3.39638       -1.94834
C          3.93191        2.56123       -1.09121
C          6.19083        3.72775       -3.90409
C          5.69240        3.89997       -5.39060
C          4.22081        4.38495       -5.67713
C          3.71621        5.81485       -5.21798
C          4.49209        7.08899       -5.72250
C          3.67568        8.43159       -5.58802
F          3.17569        8.57928       -4.34800
F          4.50990        9.46515       -5.83710
F          2.66745        8.48855       -6.47622
F          5.62728        7.24299       -5.00046
F          4.81598        6.96013       -7.03638
F          2.43751        5.90936       -5.69297
F          3.66689        5.85774       -3.86633
F          4.06165        4.33644       -7.03499
F          3.35742        3.50178       -5.12299
F          6.53163        4.75927       -6.04937
F          5.78570        2.68560       -6.00726
F          6.31257        5.00494       -3.40031
F          7.48642        3.24760       -4.06380
H          4.62592        0.40405        0.70952
H          1.68682        1.30956        1.23468
H          3.34445        0.93043        2.01408
H          4.74636       -0.45287       -2.45092
H          5.99759        1.00522       -3.97125
H          4.61086        4.47626       -1.80539
H          3.34693        3.03287       -0.28999
