20

F          3.02397       -1.73012        1.53534
In         3.33003       -0.13594        0.26669
C          1.16230        0.54194       -0.21062
F          0.18749        0.15013        0.68907
F          1.01714        1.93110       -0.28477
F          0.67587        0.09903       -1.44519
C          4.21438       -1.16270       -1.52531
C          3.70614       -0.65550       -2.88070
C          3.92735        0.83961       -3.14310
C          5.74451       -1.20284       -1.44710
H          4.17762        1.10935        1.18663
H          3.84047       -2.19143       -1.38864
H          2.62913       -0.86730       -2.96757
H          4.20059       -1.22683       -3.69786
H          3.37231        1.45089       -2.41519
H          3.58240        1.12807       -4.14837
H          4.99038        1.11417       -3.06612
H          6.19577       -0.19769       -1.43791
H          6.18885       -1.74486       -2.30898
H          6.08404       -1.71030       -0.53175
