32

N          0.99474       -0.46951        0.35264
C          2.48170       -0.36256        0.26878
C          3.01524        0.52650        1.34257
C          2.53007        0.12848        2.72708
C          2.68615       -1.40591        3.14752
C          1.38087       -2.09276        3.46910
O          1.15582       -2.68235        4.52331
O          0.42013       -2.02158        2.52196
C          4.51650        0.65985        1.22985
C          4.99475        1.67148        0.15998
C          4.71466        3.12093        0.56513
C          4.81762        4.11728       -0.58271
N          4.60208        5.49995       -0.10347
H          0.60819       -0.89523       -0.49341
H          0.64147        0.49311        0.41982
H          2.81120       -0.01531       -0.72746
H          2.84141       -1.44142        0.33028
H          1.46693        0.38353        2.86407
H          3.07002        0.72915        3.47727
H          3.34360       -1.52811        4.01712
H          3.15007       -1.94947        2.30395
H          0.67651       -1.42349        1.72170
H          5.04221       -0.31748        1.01091
H          4.92740        0.98574        2.20462
H          4.47398        1.45404       -0.78925
H          6.07535        1.53811       -0.04033
H          5.40243        3.42748        1.37273
H          3.68837        3.13557        0.97827
H          4.09768        3.81421       -1.37031
H          5.82238        4.07608       -1.03887
H          3.71775        5.53021        0.40978
H          4.48981        6.13415       -0.89685
