34

N          5.66499        1.68862        2.93144
C          5.93067        0.36555        2.33791
C          4.70099       -0.15778        1.59225
C          4.93872       -1.55922        1.01646
Nb         5.54684       -3.10652        2.43438
C          3.96171       -2.93577        4.02612
F          2.65704       -2.98948        3.49694
F          3.94282       -3.83404        5.07300
F          3.95163       -1.67271        4.66406
C          7.74095       -3.33810        2.53933
C          8.49052       -4.15146        3.41891
C          9.88064       -4.24700        3.35357
C         10.62086       -3.51170        2.40955
C          9.90157       -2.68445        1.54021
C          8.50220       -2.60444        1.60186
C         12.12464       -3.62409        2.33205
H          6.48781        2.00253        3.44935
H          4.92287        1.58701        3.62824
H          6.24081       -0.39170        3.08923
H          6.77410        0.47273        1.63588
H          4.41543        0.58167        0.82038
H          3.85879       -0.19827        2.30363
H          5.67241       -1.54011        0.18751
H          4.00311       -1.98786        0.60334
H          6.05539       -4.58670        1.61858
H          4.45787       -4.49595        2.44014
H          6.21709       -2.63902        3.99446
H          7.96667       -4.72689        4.18923
H         10.41028       -4.89611        4.06015
H         10.44284       -2.08720        0.79763
H          8.00539       -1.94420        0.88177
H         12.59182       -3.53344        3.32524
H         12.54944       -2.84016        1.68853
H         12.44265       -4.59634        1.91855
