24

C          0.91731        0.59955       -0.15476
C          2.30765        0.14020        0.25204
As         3.13584        1.45299        1.68712
C          2.82469        0.22861        3.37744
N          2.30114        1.02936        4.48123
C          5.11727        0.82384        1.31313
C          5.88359        1.92256        0.59654
H          0.49505        0.04915       -1.01685
H          0.93596        1.67042       -0.42624
H          0.20496        0.50542        0.68015
H          3.00812        0.17894       -0.59720
H          2.30499       -0.88548        0.65684
H          3.26083        2.55910        0.50834
H          3.76718        2.56051        2.76985
H          1.62480        2.05121        2.04208
H          3.77840       -0.23851        3.67048
H          2.09707       -0.55206        3.10481
H          1.46478        1.50769        4.11323
H          2.96636        1.80667        4.61006
H          5.11059       -0.12003        0.74429
H          5.53560        0.63231        2.31407
H          5.49469        2.08074       -0.42227
H          6.96986        1.73197        0.51143
H          5.75826        2.88021        1.13318
