24

I          5.52713        2.07275       -0.94222
Al         3.79374        0.18910       -1.06885
S          4.69470       -1.45598        0.52320
O          5.71415       -2.30522       -0.11645
O          4.99187       -0.88903        1.84821
C          3.26842       -2.74161        1.04160
C          2.77513       -3.70928       -0.06542
C          1.49375       -4.55825        0.25874
F          1.66333       -5.28077        1.38616
F          0.40200       -3.78436        0.40593
F          1.25305       -5.42359       -0.75762
F          2.47968       -2.97664       -1.18259
F          3.75836       -4.59611       -0.36785
F          3.75723       -3.47087        2.07951
F          2.20160       -2.01279        1.49288
C          1.92933        0.71444       -0.52514
O          1.86076        1.43029        0.75821
C          0.65044        1.81412        1.15249
F         -0.23717        0.78087        1.32907
F          0.75853        2.45615        2.33849
F          0.02669        2.67928        0.28072
H          3.78680       -0.57812       -2.47212
H          1.28116       -0.17472       -0.46104
H          1.51158        1.37151       -1.30734
