40

O          3.01981        1.57368       -2.15062
C          3.49554        2.55776       -1.33389
O          3.49233        3.71967       -1.71514
C          4.01173        2.08826       -0.01494
Nb         5.56382        0.48229        0.06736
C          5.44299       -1.77017        0.39209
C          4.69978       -2.47116        1.58261
C          3.15989       -2.19198        1.61465
C          2.35201       -2.86724        2.78199
F          2.42738       -4.21187        2.73534
F          2.77604       -2.45593        3.99324
F          1.04558       -2.52309        2.66326
F          2.95148       -0.84779        1.74299
F          2.58059       -2.61240        0.45969
F          4.85865       -3.84205        1.53014
F          5.21100       -2.07472        2.78597
F          5.12655       -2.58793       -0.69031
F          6.81261       -2.04451        0.65258
C          7.36179        1.46736       -0.66837
C          7.34886        2.36596        0.56013
C          8.58227        2.30284        1.47832
C          9.77393        3.08508        0.95822
C         10.99545        3.09164        1.93047
F         10.66127        3.64590        3.12097
F         11.42757        1.83078        2.16417
F         12.02574        3.79824        1.41903
F         10.24243        2.60099       -0.23716
F          9.44605        4.40905        0.75379
H          3.33826        0.71935       -1.73638
H          3.21647        1.54666        0.52789
H          4.33333        2.96115        0.57400
H          5.81290        0.08579        1.79974
H          4.20726       -0.18504       -0.88593
H          6.08027       -0.42838       -1.32187
H          7.25805        1.99400       -1.62318
H          8.22114        0.78802       -0.71793
H          6.51179        2.06435        1.27167
H          7.09529        3.40701        0.31398
H          8.89346        1.25747        1.61968
H          8.34798        2.71002        2.47378
