47

C          0.77016       -1.33753       -1.13569
C          2.30065       -1.40978       -1.26675
C          3.04812       -1.09987        0.03169
Ta         5.25372       -1.26075        0.24714
C          6.65588        0.47123        0.01191
C          7.15120        1.16527        1.30524
C          8.22217        0.42608        2.11931
C          7.78225        0.33244       -1.02018
C          6.41296       -2.87222        1.19758
C          5.78275       -4.10166        1.86469
C          5.15649       -5.07805        0.86593
C          4.55244       -6.31177        1.53082
N          3.98723       -7.19937        0.52295
C          3.44172       -8.42565        0.82220
N          3.23732       -8.94573        1.98883
N          3.09087       -9.16353       -0.32617
H          0.25504       -1.56238       -2.08548
H          0.44912       -0.33516       -0.80858
H          0.40742       -2.05364       -0.38012
H          2.63496       -0.71028       -2.05036
H          2.59437       -2.41038       -1.62288
H          2.70886       -1.79136        0.83680
H          2.75618       -0.09534        0.40047
H          4.59271       -0.63579        1.85787
H          4.88046       -2.65597       -0.83128
H          5.16380       -0.79886       -1.49771
H          5.89334        1.15351       -0.42547
H          6.28953        1.36319        1.96222
H          7.56864        2.16047        1.03559
H          7.83724       -0.51918        2.52880
H          8.56350        1.03752        2.96943
H          9.10750        0.18612        1.51107
H          8.53071       -0.42153       -0.72199
H          8.34000        1.28173       -1.16852
H          7.37972        0.01843       -1.99335
H          6.94502       -2.28707        1.97994
H          7.19708       -3.19021        0.47926
H          5.00434       -3.77358        2.57643
H          6.52697       -4.65689        2.47229
H          5.93212       -5.40050        0.14670
H          4.39504       -4.55086        0.27219
H          3.75347       -6.00983        2.22989
H          5.32383       -6.83824        2.12787
H          4.37031       -7.09157       -0.41136
H          3.64334       -8.35732        2.72098
H          2.62095       -8.60742       -1.03771
H          2.52959       -9.96745       -0.05622
