23

C          1.42330       -0.94276       -2.40047
C          2.87318       -0.55277       -2.08330
C          2.96681        0.76303       -1.30506
In         4.99944        1.39230       -0.80383
S          6.18020       -0.77298        0.32244
O          5.92175       -2.05123       -0.36890
O          7.53601       -0.52646        0.84687
C          5.14504       -0.96272        1.95515
F          3.85008       -1.28105        1.68680
F          5.65163       -1.92056        2.75893
F          5.13274        0.20902        2.64878
S          6.21953        1.54933       -3.17237
O          7.61071        1.98568       -3.23636
O          5.73911        0.64290       -4.21350
F          5.34077        3.00103       -3.49670
H          1.37437       -1.89288       -2.95416
H          0.93018       -0.17108       -3.01204
H          0.83416       -1.06074       -1.47739
H          3.44384       -0.47035       -3.02117
H          3.35148       -1.36238       -1.51065
H          2.41651        0.70083       -0.35236
H          2.53194        1.59632       -1.87982
H          5.69379        2.71211        0.08164
