48

F          0.75567       -2.35506        3.42665
C          1.64619       -3.36720        3.62688
C          2.62270       -3.51750        2.47914
C          1.96053       -3.83758        1.13449
Si         3.16803       -4.00875       -0.33608
C          2.16058       -4.39827       -1.87333
C          1.54259       -3.37385       -2.61661
C          0.75706       -3.65682       -3.73791
C          0.55602       -4.98344       -4.16509
C          1.17242       -6.01178       -3.42845
C          1.95673       -5.72228       -2.30780
Ga        -0.57293       -5.39250       -5.75095
S         -0.00550       -3.55404       -7.27753
O         -0.29433       -2.27249       -6.60114
O          1.29674       -3.70700       -7.94088
C         -1.23528       -3.59500       -8.80681
C         -2.59008       -2.87095       -8.59998
F         -2.42722       -1.53797       -8.51739
F         -3.43252       -3.11691       -9.64282
F         -3.19705       -3.30816       -7.47620
F         -0.61308       -3.03136       -9.87403
F         -1.48581       -4.90345       -9.08362
S          0.22219       -7.47298       -6.75730
O          0.26799       -8.42172       -5.62260
O         -0.45671       -7.89775       -7.98946
C          2.08087       -7.36938       -7.28863
F          2.80425       -6.69339       -6.36496
F          2.58904       -8.62046       -7.38829
F          2.22808       -6.75808       -8.47653
C          4.11007       -2.38010       -0.53957
C          4.40099       -5.39377        0.04018
F          2.29255       -3.08930        4.80178
F          0.91601       -4.49695        3.84465
H          3.32856       -4.30653        2.77939
H          3.18987       -2.57536        2.43648
H          1.23123       -3.05350        0.87669
H          1.38841       -4.77563        1.20932
H          1.67936       -2.32720       -2.32830
H          0.31513       -2.82866       -4.29603
H          1.05184       -7.05196       -3.73948
H          2.42503       -6.55288       -1.77163
H         -2.11543       -5.60319       -5.80743
H          3.43014       -1.53696       -0.72665
H          4.80453       -2.44061       -1.38921
H          4.70019       -2.14102        0.35765
H          3.89700       -6.35488        0.21472
H          4.99840       -5.16318        0.93472
H          5.09791       -5.53058       -0.79857
