8

Cl         1.26125       -0.45325        0.20660
B          2.89533        0.35957       -0.17188
C          3.78101       -0.52204       -1.26059
F          3.15188       -1.65029       -1.73914
F          4.04696        0.23129       -2.39871
F          5.01626       -0.96378       -0.85031
I          4.09278        0.68759        1.79852
H          2.72093        1.47353       -0.59378
