19

N          3.61513       -3.28460       -1.03225
C          2.72642       -2.29776       -0.76020
O          1.57001       -2.49717       -0.35895
C          3.27038       -0.89046       -1.02482
C          4.75921       -0.67407       -0.69463
N          5.58602       -1.50971       -1.55908
S          7.15059       -1.36679       -1.37246
O          7.65229        0.02050       -1.49182
O          7.72981       -2.10743       -0.22882
C          7.71920       -2.24958       -2.84331
H          3.35522       -4.23742       -0.80366
H          4.58786       -2.97952       -1.28253
H          2.64102       -0.19880       -0.44758
H          3.11197       -0.67178       -2.09512
H          4.90538       -0.89527        0.38574
H          4.98616        0.40281       -0.82345
H          7.35940       -1.72648       -3.73541
H          7.33364       -3.27492       -2.81216
H          8.81503       -2.25130       -2.80280
