28

S          2.30109        2.38354       -0.72982
In         2.85906        0.27227        0.44007
S          4.68333       -1.03603       -1.14484
O          5.30147       -0.31506       -2.27553
O          5.59641       -1.73304       -0.21211
C          3.85057       -2.61313       -2.02001
C          2.84484       -2.41063       -3.19257
C          3.36466       -1.71837       -4.51089
C          2.52105       -2.07384       -5.79406
F          1.20011       -1.90386       -5.57903
F          2.89083       -1.25036       -6.80139
F          2.73343       -3.33958       -6.20339
F          3.30264       -0.37472       -4.37035
F          4.64295       -2.08638       -4.78175
F          2.35510       -3.64929       -3.55318
F          1.79241       -1.67828       -2.72848
F          4.85403       -3.43055       -2.44001
F          3.14883       -3.27683       -1.04793
C          4.22327        0.91535        2.05800
O          4.06622        0.02073        3.21802
C          4.59458        0.44636        4.36237
F          3.99374        1.58230        4.85854
F          4.44303       -0.51956        5.29957
F          5.92930        0.74429        4.29110
H          1.34631        1.80717       -1.49530
H          1.59473       -0.90905        0.58508
H          3.95304        1.93739        2.35884
H          5.27257        0.88847        1.73890
