28

C          0.60361        0.13725       -0.19995
C          2.08744        0.15604       -0.45319
S          2.91083       -1.26043       -0.56536
O          4.37054       -1.08585       -0.51319
O          2.27694       -2.36289        0.17362
C          2.75153       -1.97376       -2.37588
C          3.41971       -3.32125       -2.74851
F          4.75737       -3.28394       -2.57422
F          2.92350       -4.34553       -2.02372
F          3.20608       -3.63916       -4.07295
F          1.40992       -2.11607       -2.67000
F          3.25338       -1.03798       -3.25827
C          2.74232        1.44028       -0.89288
C          2.88747        2.49019        0.23466
C          3.84731        2.05573        1.34412
C          3.94381        3.05752        2.49636
H          0.26309       -0.87334        0.05891
H          0.01711        0.48312       -1.07706
H          0.32277        0.79807        0.64250
H          2.16050        1.90685       -1.71655
H          3.74321        1.22662       -1.29746
H          1.89465        2.69892        0.67378
H          3.23433        3.44564       -0.20261
H          4.84637        1.88733        0.90839
H          3.52236        1.07215        1.71726
H          4.29451        4.04305        2.14871
H          4.64017        2.71402        3.27664
H          2.96219        3.21077        2.97279
