65

C          3.84910        1.82987       -1.61230
C          3.87014        1.57624       -0.10247
C          3.94517        2.86708        0.72013
C          3.93646        2.66870        2.24250
C          5.10271        1.83595        2.80424
C          6.50629        2.37964        2.50799
Nb         7.36112        4.26125        3.25746
C          6.23320        5.79785        4.41362
C          5.14398        5.32230        5.18234
C          4.29308        6.16619        5.89347
C          4.49434        7.56562        5.91061
C          5.60193        8.05055        5.18257
C          6.43715        7.19434        4.45821
Si         3.34570        8.71544        6.81582
C          4.23653        9.52562        8.30629
C          3.35537       10.47942        9.11988
C          4.04234       11.11266       10.30973
F          5.11929       11.87060        9.95575
F          3.19370       11.94497       10.99559
F          4.48898       10.19350       11.21241
C          2.74373       10.11341        5.68076
C          1.83495        7.78869        7.49150
C          9.40467        4.23173        2.44887
C          9.77369        4.35818        0.96227
C          9.86626        5.82681        0.53366
C         11.07727        3.61529        0.61621
H          3.78500        0.89279       -2.18546
H          4.75933        2.35775       -1.93517
H          2.98968        2.45670       -1.89770
H          4.72787        0.92975        0.14427
H          2.96819        1.00853        0.18890
H          3.09313        3.51348        0.44390
H          4.84957        3.43205        0.44000
H          2.98597        2.18709        2.53753
H          3.95901        3.66292        2.71387
H          5.00084        0.79295        2.44216
H          4.96853        1.76832        3.89823
H          6.69741        2.41855        1.41519
H          7.25966        1.66295        2.91294
H          7.72444        4.07459        5.03670
H          5.88102        4.79456        2.47555
H          7.46904        5.74578        2.30577
H          4.94396        4.24331        5.22393
H          3.45577        5.72827        6.44722
H          5.80891        9.12774        5.15815
H          7.25799        7.62975        3.88054
H          5.12418       10.05695        7.92811
H          4.61308        8.71474        8.94929
H          2.46979        9.96307        9.52145
H          2.98754       11.31264        8.50182
H          3.59327       10.68385        5.27796
H          2.07269       10.81880        6.19411
H          2.19857        9.69213        4.82404
H          2.12727        7.02292        8.22424
H          1.29523        7.28181        6.67890
H          1.12742        8.47332        7.98222
H          9.67477        3.21065        2.81642
H         10.00431        4.93771        3.05713
H          8.97141        3.89086        0.35834
H         10.69937        6.32503        1.05803
H          8.93971        6.35671        0.79296
H         10.04525        5.92186       -0.54926
H         11.92179        4.03106        1.18953
H         11.32282        3.69665       -0.45677
H         11.00160        2.54630        0.86605
