31

N          4.85247        0.20731       -2.72105
C          4.33207        0.06651       -1.34245
C          4.94514       -1.13644       -0.63582
C          4.44220       -1.32161        0.79737
C          5.01087       -2.58494        1.46192
N          6.41657       -2.57573        1.52788
C          6.89499       -3.73372        2.16470
C          8.43040       -3.76902        2.25917
C          9.04073       -2.50977        2.89887
C          8.44088       -2.13757        4.25519
N          8.64940       -3.20550        5.26541
H          4.27486        0.86199       -3.25196
H          4.76657       -0.69493       -3.19498
H          3.22525       -0.02440       -1.31169
H          4.58751        0.98833       -0.79191
H          6.04196       -1.06119       -0.61469
H          4.70574       -2.05149       -1.21284
H          3.33629       -1.36644        0.80394
H          4.74263       -0.44553        1.40029
H          4.57915       -3.47716        0.88969
H          4.50998       -2.68157        2.48142
H          6.57126       -4.70475        1.66756
H          6.48280       -3.87157        3.23020
H          8.84122       -3.86543        1.23913
H          8.74502       -4.67335        2.81330
H          8.85103       -1.66790        2.21668
H         10.13365       -2.63492        3.00335
H          7.37522       -1.89651        4.09181
H          8.93559       -1.22632        4.63316
H          8.13965       -4.03200        4.93556
H          8.16792       -2.93651        6.12769
