68

C          8.95328       -5.07214       -2.95382
C          8.59101       -3.83393       -2.13064
C          9.12663       -2.53002       -2.72963
C          8.76031       -1.28154       -1.92157
C          9.27785        0.02229       -2.53606
C          8.89218        1.27668       -1.74554
C          9.35906        2.58017       -2.40446
C          8.94873        3.85092       -1.64494
Si         9.32761        5.47781       -2.57001
C          8.53465        5.42053       -4.26312
C          7.13137        5.47246       -4.40396
C          6.52027        5.32782       -5.65256
C          7.24924        5.11909       -6.84549
C          8.65548        5.08330       -6.68891
C          9.27909        5.22496       -5.44587
B          6.50628        4.91203       -8.28068
C          6.87207        6.13119       -9.33904
C          6.34629        7.50682       -8.91566
C          6.65842        8.60157       -9.95161
C          6.14261        9.97753       -9.59374
C          6.44517       11.08528      -10.64945
F          7.78016       11.23111      -10.83016
F          5.89729       10.77376      -11.85004
F          5.94825       12.28655      -10.27320
F          4.77104        9.98341       -9.43409
F          6.68151       10.43507       -8.40975
C          6.84209        3.44604       -8.96254
N          8.23089        3.31348       -9.49148
C          8.63567        6.90109       -1.52222
C         11.20784        5.69810       -2.69881
H          8.55514       -5.99229       -2.50222
H         10.04444       -5.18710       -3.03900
H          8.55042       -5.00007       -3.97509
H          8.97689       -3.94721       -1.10304
H          7.49421       -3.76308       -2.03544
H          8.74427       -2.42014       -3.75968
H         10.22547       -2.59684       -2.82211
H          9.15049       -1.38448       -0.89285
H          7.66161       -1.22361       -1.82379
H          8.89337        0.11530       -3.56643
H         10.37757       -0.02845       -2.62814
H          9.30267        1.20986       -0.72147
H          7.79403        1.30964       -1.63114
H          8.95401        2.62601       -3.42916
H         10.45738        2.55101       -2.51730
H          9.41778        3.87166       -0.64440
H          7.85794        3.83288       -1.46883
H          6.49985        5.62579       -3.52061
H          5.42827        5.36895       -5.71993
H          9.27510        4.90499       -7.57186
H         10.37214        5.17505       -5.39551
H          5.27733        4.93752       -8.08033
H          6.44597        5.88620      -10.33387
H          7.96848        6.21677       -9.49228
H          6.78137        7.78894       -7.94417
H          5.25708        7.44706       -8.76418
H          6.22316        8.33107      -10.92700
H          7.74708        8.68558      -10.09824
H          6.08532        3.25962       -9.75804
H          6.70282        2.64147       -8.21756
H          8.41087        4.09379      -10.12702
H          8.32411        2.46806      -10.06062
H          7.54182        6.83151       -1.43427
H          8.86776        7.87193       -1.98290
H          9.05693        6.89428       -0.50544
H         11.67955        4.87192       -3.24950
H         11.66396        5.73904       -1.69827
H         11.45772        6.63147       -3.22359
