35

S          1.56004       -1.59756        0.39776
C          2.97860       -0.49260       -0.00048
C          3.43748        0.21629        1.27115
C          4.68474        1.07210        1.01129
C          5.21014        1.81122        2.26335
C          5.74551        0.87779        3.34081
C          6.14616       -0.44402        3.08166
C          6.67641       -1.26782        4.08319
C          6.84154       -0.80127        5.39090
C          6.46714        0.52753        5.65313
C          5.92943        1.34448        4.65953
C          7.37165       -1.69678        6.48496
C          3.98379        2.75575        2.76545
O          3.66145        3.63451        1.92484
O          3.47539        2.49776        3.88256
C          6.34927        2.77430        1.84905
N          7.50396        2.07266        1.24612
H          1.34970       -2.06501       -0.85577
H          2.65813        0.23644       -0.75764
H          3.78916       -1.10568       -0.42007
H          3.64191       -0.53177        2.05372
H          2.62897        0.85617        1.65575
H          4.42979        1.85550        0.28104
H          5.48129        0.46003        0.55568
H          6.04683       -0.85174        2.07448
H          6.96712       -2.29371        3.83643
H          6.58549        0.92621        6.66544
H          5.60650        2.35545        4.90283
H          7.92060       -2.55416        6.06946
H          6.55541       -2.10075        7.10691
H          8.04994       -1.15307        7.15975
H          6.62742        3.37221        2.73888
H          5.92658        3.46884        1.10989
H          7.92282        1.45688        1.94845
H          8.22316        2.75566        1.00036
