23

O          1.97683        0.11050       -1.37411
C          1.99629        1.01289       -0.36383
O          1.17911        1.91843       -0.34813
C          3.04921        0.81072        0.70972
B          4.60510        0.85962        0.18084
S          5.08872       -1.00013       -0.10341
O          5.33134       -1.82295        1.08398
O          4.12849       -1.53866       -1.09998
C          6.73913       -1.10982       -1.07662
F          6.75711       -0.27187       -2.13547
F          7.79931       -0.82848       -0.29202
F          6.88374       -2.37426       -1.53673
C          5.62134        1.73557        1.11843
C          5.90456        1.38057        2.60737
F          4.74930        1.20704        3.29850
F          6.63355        0.25241        2.72137
F          6.59842        2.37218        3.23462
F          6.88465        1.85300        0.54385
F          5.10775        3.03325        1.16677
H          2.74046       -0.52230       -1.28354
H          2.82808       -0.13518        1.23406
H          2.89852        1.61242        1.44275
H          4.73258        1.32073       -0.93406
