51

C          3.35794       -6.03345        0.36233
O          4.72621       -6.10549        0.02685
C          5.25114       -4.83854       -0.36704
C          6.71912       -4.96323       -0.74810
O          6.99101       -5.76703       -1.88895
C          6.46784       -5.28091       -3.12934
C          6.91262       -3.88511       -3.55667
Nb         8.88091       -2.98444       -3.80420
S          9.88244       -1.32377       -2.25611
O         10.93069       -0.46718       -2.85206
O          8.77714       -0.64302       -1.54126
C         10.84723       -1.99589       -0.66469
C         12.15165       -2.86235       -0.75099
C         13.34406       -2.31774       -1.61791
C         14.72300       -3.03561       -1.34900
F         14.61414       -4.37792       -1.41482
F         15.60830       -2.64302       -2.29624
F         15.24063       -2.70631       -0.14892
F         13.07237       -2.49733       -2.93218
F         13.55481       -0.99918       -1.37287
F         12.63915       -3.00364        0.53679
F         11.84653       -4.10737       -1.19645
F         11.16945       -0.87089        0.04336
F          9.98676       -2.72799        0.10693
C          9.82431       -3.95228       -5.49938
C         10.72010       -5.19023       -5.53654
C          9.98673       -6.41415       -4.97152
C         11.26688       -5.48453       -6.94402
H          3.03258       -7.04638        0.63623
H          2.74333       -5.67879       -0.48912
H          3.17756       -5.35499        1.22059
H          5.17426       -4.11626        0.47192
H          4.65185       -4.42935       -1.20491
H          7.26312       -5.44614        0.07711
H          7.13801       -3.94810       -0.87129
H          5.35874       -5.35542       -3.10910
H          6.81555       -6.01934       -3.86788
H          6.42127       -3.09112       -2.95694
H          6.55146       -3.73280       -4.60258
H         10.42611       -3.56226       -3.24989
H          8.88306       -3.55007       -2.15777
H          8.62728       -1.26945       -4.25655
H         10.38034       -3.05095       -5.84512
H          8.96831       -4.07259       -6.20765
H         11.57842       -4.98262       -4.87564
H          9.08506       -6.63678       -5.56662
H          9.67109       -6.24003       -3.93313
H         10.62495       -7.31155       -4.98948
H         10.44424       -5.69656       -7.64654
H         11.94005       -6.35761       -6.94264
H         11.82771       -4.62437       -7.33810
