22

I          1.68942        0.14683        0.09508
Sb         4.54424        0.28272        0.95045
S          4.59800        2.83261        1.80048
O          5.01602        2.82871        3.21009
O          5.36051        3.62234        0.82284
C          2.88732        3.72005        1.86133
F          2.02183        3.03837        2.63604
F          3.05912        4.95167        2.39409
F          2.36193        3.85895        0.63166
S          5.53573       -2.18350        0.37285
O          6.74837       -2.00759       -0.44300
O          5.62592       -2.94009        1.63117
C          4.40284       -3.35193       -0.71136
C          4.34863       -2.99746       -2.22299
F          5.50958       -3.29610       -2.83529
F          3.36272       -3.69969       -2.84286
F          4.09155       -1.68509       -2.39190
F          4.88109       -4.61773       -0.58471
F          3.14660       -3.30828       -0.20313
H          4.84608        0.76376       -0.68028
H          6.19926        0.43707        1.47802
H          3.95247       -0.34813        2.44443
