46

C          0.05210        3.37423       -0.94942
C          1.46775        3.59057       -1.49268
C          2.56622        3.31924       -0.45952
C          3.99813        3.46992       -0.99951
C          5.08468        3.32217        0.06619
Ta         7.25969        3.29907       -0.38408
C          8.41371        1.42771       -0.43786
C          9.17217        0.82542       -1.62260
C         10.38594        1.64739       -2.08671
C         11.46059        1.82058       -1.01318
N         12.66158        2.47164       -1.57010
C          8.81945        4.85153       -0.30090
C          8.54916        6.32035        0.01679
C          9.83034        7.16096        0.01191
S          9.62932        8.92424        0.51365
H         -0.72043        3.61725       -1.69530
H         -0.13001        4.00197       -0.06300
H         -0.09720        2.32717       -0.64246
H          1.56902        4.62733       -1.85757
H          1.62829        2.94506       -2.37347
H          2.44048        2.29855       -0.05229
H          2.42917        4.00141        0.39983
H          4.10255        4.45578       -1.48471
H          4.16571        2.72938       -1.79986
H          4.93956        2.37001        0.62244
H          4.95799        4.10881        0.83923
H          6.62602        2.43297       -1.84488
H          7.09262        3.17601        1.45283
H          6.68612        4.48799       -1.61903
H          7.59231        0.74179       -0.13748
H          9.07072        1.49038        0.45737
H          8.47409        0.72917       -2.46971
H          9.53172       -0.20077       -1.39596
H         10.06625        2.64437       -2.43002
H         10.84702        1.14872       -2.96036
H         11.67081        0.83101       -0.55460
H         11.07973        2.46751       -0.20913
H         13.09466        1.85751       -2.26307
H         13.35811        2.61398       -0.83706
H          9.32828        4.76191       -1.28448
H          9.52899        4.43580        0.45067
H          8.06417        6.42336        1.00098
H          7.84312        6.73247       -0.72339
H         10.31780        7.12812       -0.97269
H         10.55067        6.76778        0.74570
H          8.68297        9.23510       -0.40384
