36

F          0.69607       -0.67282       -0.90346
C          1.72494       -1.44124       -1.38796
O          2.41861       -0.86974       -2.36508
C          3.09184        0.41445       -2.04179
Ga         4.01555        1.04450       -3.73698
S          4.17597        3.46916       -3.15393
O          4.13214        4.32783       -4.35662
O          3.29358        3.84023       -2.02564
C          5.97584        3.90704       -2.48473
C          6.32529        3.37255       -1.07465
F          5.62045        4.00113       -0.11703
F          6.07349        2.04515       -0.99674
F          7.64882        3.55134       -0.78970
F          6.88830        3.39607       -3.36433
F          6.11090        5.26229       -2.46758
C          2.83249        1.19156       -5.35816
C          3.23076        0.24935       -6.49886
C          2.35257        0.46241       -7.74703
C          2.68706       -0.45629       -8.90273
C          1.81371       -0.24442      -10.17764
F          0.50246       -0.44143       -9.90016
F          1.95440        1.01580      -10.65262
F          2.16058       -1.10057      -11.16470
F          3.99452       -0.30214       -9.31071
F          2.53233       -1.78202       -8.55496
F          2.47714       -1.77783       -0.28741
F          1.17408       -2.59106       -1.85677
H          3.79088        0.23134       -1.21416
H          2.32877        1.13236       -1.71164
H          5.50989        0.58703       -3.94743
H          2.88580        2.23896       -5.69661
H          1.78946        1.00470       -5.05497
H          3.14823       -0.80142       -6.18026
H          4.28511        0.40839       -6.77238
H          2.45249        1.49917       -8.10321
H          1.29240        0.30667       -7.49497
