56

C          2.02482       -1.46101        1.80059
C          3.49474       -1.04144        1.69852
C          3.70583        0.47769        1.71787
C          5.18002        0.90889        1.60331
C          5.42441        2.40946        1.67816
Sb         7.61838        3.09778        1.51720
C          7.63187        2.53183       -0.69302
C          8.98659        2.05605       -1.20425
C          9.27908        0.58406       -0.88383
C         10.66725        0.12017       -1.33187
C         10.95512       -1.34652       -0.99879
C          7.86286        3.79390        3.68463
C          6.95616        3.24607        4.78723
C          7.01774        1.72085        4.96859
C          8.35440        1.21437        5.51114
N          8.40695       -0.24171        5.42382
C          9.45060       -0.98430        5.92789
N         10.33583       -0.62507        6.80201
N          9.46205       -2.31798        5.47280
H          1.90941       -2.55562        1.80421
H          1.43902       -1.06735        0.95561
H          1.56535       -1.07583        2.72408
H          3.93137       -1.45738        0.77420
H          4.06263       -1.49442        2.52946
H          3.28068        0.88938        2.65128
H          3.12721        0.93733        0.89630
H          5.58784        0.51099        0.65627
H          5.75254        0.39205        2.39581
H          5.00708        2.83673        2.60500
H          4.95235        2.93533        0.83214
H          8.15828        1.39757        2.01245
H          9.34582        3.61244        1.30588
H          6.98185        4.75592        1.08916
H          7.31674        3.46761       -1.17968
H          6.84703        1.77621       -0.85919
H          9.78096        2.67907       -0.74556
H          9.08300        2.20576       -2.29885
H          8.50960       -0.05092       -1.36219
H          9.16849        0.43060        0.20231
H         11.42880        0.76049       -0.85515
H         10.77502        0.27958       -2.41989
H         10.89194       -1.52165        0.08594
H         11.95851       -1.65515       -1.32971
H         10.22388       -2.01415       -1.48104
H          7.75030        4.88638        3.60042
H          8.92597        3.58565        3.88375
H          5.90919        3.51405        4.56663
H          7.17816        3.72581        5.76393
H          6.84740        1.25018        3.98742
H          6.21188        1.37967        5.64033
H          8.46243        1.51079        6.56839
H          9.19015        1.66774        4.95108
H          7.92624       -0.62524        4.61470
H         10.17235        0.33752        7.10627
H          9.29983       -2.41599        4.47262
H         10.33470       -2.76120        5.74882
