47

N          4.19968        0.81755        0.36733
C          4.78067        1.85010       -0.48521
Sb         3.69383        2.22783       -2.46748
C          2.69344        4.07367       -1.55629
C          3.15296        5.36545       -1.85338
C          2.67609        6.49181       -1.18024
C          1.71811        6.33935       -0.16393
C          1.24222        5.05735        0.15209
C          1.72833        3.94845       -0.54569
C          1.23123        7.54450        0.58319
C          0.13663        8.43823       -0.11769
C         -1.27226        7.82805       -0.47526
C         -2.28281        7.35420        0.65190
C         -2.71104        8.38559        1.76188
C         -4.01519        7.97899        2.54967
F         -3.93980        6.71506        3.00431
F         -4.14947        8.80630        3.60859
F         -5.11318        8.10309        1.78284
F         -1.71780        8.50318        2.67424
F         -2.95550        9.60232        1.20803
F         -3.41725        6.98970       -0.01994
F         -1.78946        6.25201        1.26346
F         -1.92746        8.78303       -1.20050
F         -1.09054        6.74826       -1.27486
F         -0.09651        9.54707        0.65015
F          0.65215        8.86485       -1.30628
F          0.72265        7.21623        1.82153
F          2.26710        8.43475        0.80949
C          4.83103        0.42762       -3.37840
O          4.49180       -0.81181       -2.64389
C          5.21523       -1.89032       -2.90497
F          5.19851       -2.28131       -4.22339
F          6.54860       -1.76932       -2.58163
F          4.73231       -2.93358       -2.17821
H          4.17687       -0.06503       -0.14972
H          3.21437        1.03637        0.53992
H          5.81298        1.57583       -0.75154
H          4.80417        2.81120        0.05074
H          2.36167        1.17568       -1.80211
H          5.04807        3.29913       -3.03985
H          2.83270        2.45190       -4.01558
H          3.92499        5.49289       -2.62037
H          3.05819        7.48529       -1.42200
H          0.51008        4.92996        0.95082
H          1.34989        2.95367       -0.28494
H          5.90977        0.61155       -3.26522
H          4.57543        0.27932       -4.43783
