30

N          0.90574       -0.38332        0.28086
C          2.30663        0.06096        0.09628
C          2.85960       -0.51914       -1.20663
C          4.40364       -0.38202       -1.35518
C          4.87423        1.06181       -1.12631
C          5.73248        1.33302       -0.04611
C          6.23050        2.61140        0.20109
C          5.86162        3.67479       -0.62450
C          4.98771        3.43673       -1.68007
C          4.48685        2.15171       -1.96119
C          3.53083        2.14712       -3.16027
O          2.86317        3.15341       -3.38986
O          3.48701        1.09110       -3.95570
C          5.02805       -1.53292       -0.41495
O          5.36168       -2.57141       -1.04952
O          5.04379       -1.33221        0.82449
N          4.76928       -0.72516       -2.76702
H          0.53502        0.02734        1.14000
H          0.90545       -1.39426        0.43963
H          2.97665       -0.22442        0.92426
H          2.29929        1.16013        0.03259
H          2.34300       -0.05508       -2.05961
H          2.62591       -1.59749       -1.24809
H          5.96833        0.49979        0.61701
H          6.90322        2.77263        1.04639
H          6.24031        4.68311       -0.44375
H          4.64787        4.25036       -2.32102
H          4.05069        0.24872       -3.54716
H          5.77278       -0.54020       -2.85979
H          4.72056       -1.75700       -2.78306
