50

C          1.53352       -1.14204        1.09335
C          2.87522       -0.67856        0.51431
C          3.27670       -1.40210       -0.78219
C          4.61919       -0.97663       -1.39110
Al         5.19132       -2.03998       -3.03898
C          3.82848       -1.76306       -4.54729
C          3.56771       -0.32252       -4.99666
C          2.49166       -0.22539       -6.10075
C          2.20117        1.17549       -6.59159
C          1.12970        1.26661       -7.72107
F          1.52263        0.57145       -8.81688
F         -0.05470        0.75298       -7.30855
F          0.91023        2.54618       -8.10487
F          1.74228        1.98842       -5.57462
F          3.33155        1.78144       -7.10369
C          7.08313       -1.51688       -3.60734
C          7.43464       -0.02324       -3.64067
C          8.89807        0.29802       -3.98822
C          9.24078        1.79148       -3.96919
C         10.70389        2.10020       -4.30389
C         11.03991        3.59351       -4.25752
H          1.27579       -0.61378        2.02482
H          1.55278       -2.22077        1.31524
H          0.71420       -0.97303        0.37680
H          3.67237       -0.82847        1.26348
H          2.84289        0.40840        0.32340
H          2.46712       -1.25424       -1.52235
H          3.28917       -2.49001       -0.58260
H          5.41136       -1.08573       -0.62334
H          4.58536        0.10758       -1.61854
H          5.17442       -3.65665       -2.67880
H          2.87420       -2.21764       -4.21596
H          4.14986       -2.36516       -5.41944
H          4.49660        0.13554       -5.37262
H          3.24819        0.29334       -4.14034
H          1.54533       -0.65254       -5.73433
H          2.79921       -0.82519       -6.97143
H          7.29923       -1.96362       -4.59834
H          7.77548       -2.02719       -2.90836
H          7.20483        0.43390       -2.66042
H          6.78535        0.50410       -4.36473
H          9.13105       -0.12013       -4.98465
H          9.55553       -0.23593       -3.27785
H          9.00326        2.20494       -2.97217
H          8.58532        2.32721       -4.67951
H         10.93808        1.70031       -5.30549
H         11.35715        1.55402       -3.60168
H         10.42494        4.16070       -4.97292
H         12.09626        3.78483       -4.49959
H         10.84587        4.01066       -3.25741
