44

S          2.52426        0.72322        3.47509
C          3.46968        0.44255        1.90809
C          4.61464       -0.53482        2.18327
C          5.39867       -0.93481        0.92651
Nb         6.14670       -2.99894        1.27347
C          4.44705       -4.41540        1.18812
C          3.34732       -4.20492        2.26509
C          2.00167       -3.77825        1.69313
O          1.40788       -4.41389        0.82067
N          1.44180       -2.64731        2.23848
C          8.31278       -3.60300        1.57520
C          8.50684       -4.59300        2.70072
O          7.53589       -5.66231        2.57721
C          7.49226       -6.48480        3.71705
C          6.42958       -7.55282        3.54242
O          6.90552       -8.59199        2.68928
C          5.88120       -9.49568        2.33214
H          1.49235        1.42496        2.94859
H          3.85448        1.40368        1.54083
H          2.78258        0.02227        1.16152
H          4.18103       -1.42130        2.68888
H          5.29861       -0.09890        2.92787
H          6.12923       -0.16646        0.63854
H          4.71673       -1.07006        0.06147
H          7.02979       -2.40599       -0.14113
H          6.51155       -4.16097       -0.00220
H          6.53275       -2.90543        3.08284
H          5.01453       -5.33876        1.40375
H          3.97991       -4.57867        0.20604
H          3.65886       -3.50277        3.06085
H          3.13912       -5.15605        2.78813
H          1.94701       -2.01326        2.84936
H          0.57728       -2.31663        1.82510
H          8.76682       -2.63789        1.87254
H          8.80332       -3.94437        0.65519
H          8.34281       -4.09082        3.67456
H          9.51550       -5.06849        2.71884
H          7.24211       -5.88486        4.61935
H          8.47443       -6.97051        3.90618
H          5.52227       -7.09009        3.10971
H          6.16110       -7.97663        4.53325
H          6.32542      -10.24623        1.66446
H          5.05491       -8.98668        1.80036
H          5.45684      -10.01135        3.21825
