40

C          1.11778        0.06826       -1.39026
C          2.55665       -0.45987       -1.27387
C          2.93906       -0.96523        0.10592
Sb         5.00349       -1.94318        0.13369
C          5.70269       -0.32187        1.66590
C          6.79403       -0.78755        2.62400
C          6.98302        0.09331        3.87440
C          6.02188        0.98618        0.95429
C          6.94296       -3.17057        0.11684
C          7.99963       -2.97796       -0.97689
C          7.42485       -3.23190       -2.37901
C          8.66295       -1.59343       -0.90546
H          0.88402        0.41692       -2.41133
H          0.95090        0.91139       -0.70090
H          0.38944       -0.71478       -1.12667
H          3.25700        0.33594       -1.58176
H          2.70034       -1.27544       -2.00720
H          2.27034       -1.77466        0.44285
H          2.91457       -0.15842        0.85692
H          4.30632       -3.14443       -1.03498
H          4.52872       -2.96239        1.57752
H          5.52226       -0.85533       -1.24066
H          4.75767       -0.22149        2.23000
H          7.75800       -0.84301        2.08733
H          6.56876       -1.81679        2.95738
H          7.23273        1.13163        3.60681
H          7.79206       -0.28364        4.52314
H          6.05908        0.12213        4.47413
H          6.95296        0.90080        0.36832
H          6.15109        1.84716        1.64020
H          5.22807        1.25813        0.24076
H          6.52503       -4.18968        0.07673
H          7.39138       -3.03646        1.11343
H          8.80901       -3.72394       -0.81930
H          6.63400       -2.50391       -2.60919
H          6.98075       -4.23628       -2.44570
H          8.20747       -3.14918       -3.15130
H          7.92171       -0.80138       -1.08605
H          9.46261       -1.49372       -1.65806
H          9.10834       -1.41978        0.08640
