36

O          3.26251        0.73258       -1.42035
C          2.45329       -0.30168       -1.03519
O          1.29858       -0.33075       -1.40737
C          3.10496       -1.36056       -0.15290
C          4.51145       -1.08263        0.36458
P          5.18886       -2.46155        1.61021
C          5.09021       -3.89483        0.22485
C          5.65245       -3.61625       -1.03607
C          5.70538       -4.54702       -2.07533
C          5.19572       -5.83272       -1.87568
C          4.66390       -6.15761       -0.63268
C          4.59892       -5.21409        0.41420
C          4.00201       -5.79497        1.68390
O          4.03336       -6.99541        1.91303
O          3.37439       -4.97672        2.54614
C          7.10024       -2.19146        1.34163
O          7.45954       -1.05905        0.45672
C          8.74461       -0.74036        0.37672
F          9.54779       -1.75215       -0.09051
F          8.88600        0.30481       -0.48056
F          9.30389       -0.35424        1.57110
H          4.13469        0.57092       -1.00063
H          3.08722       -2.29392       -0.74100
H          2.40438       -1.53652        0.67817
H          4.53458       -0.17281        0.98552
H          5.22592       -0.94833       -0.46185
H          5.22654       -1.44901        2.68897
H          3.73192       -2.71766        1.97205
H          5.63661       -3.48733        2.57079
H          6.08297       -2.62911       -1.21596
H          6.14727       -4.26887       -3.03545
H          5.22192       -6.57582       -2.67501
H          4.28751       -7.16103       -0.42873
H          3.47704       -4.01313        2.26665
H          7.57418       -3.09825        0.94031
H          7.48262       -1.96668        2.34794
