42

F          1.69538        0.19144        0.28290
C          2.99354       -0.00146       -0.06248
C          3.42044       -1.44063        0.07633
C          2.53195       -2.46165       -0.29325
C          2.92081       -3.80679       -0.21018
C          4.21487       -4.10732        0.24755
C          5.09521       -3.08145        0.61420
C          4.70556       -1.74185        0.52882
C          6.49643       -3.40866        1.06234
F          6.59997       -4.64480        1.60660
F          7.38509       -3.36467        0.01889
F          6.96280       -2.52170        1.99127
In         1.59059       -5.41951       -0.84501
S         -0.88278       -4.42247       -0.76206
O         -0.60893       -3.09205       -1.35191
O         -1.99186       -5.20283       -1.32880
C         -1.43911       -3.91569        1.08667
C         -2.66658       -4.62566        1.73088
C         -2.43515       -6.13283        2.12272
C         -3.75108       -6.98095        2.25880
F         -4.63955       -6.35592        3.06321
F         -4.32541       -7.20227        1.06680
F         -3.44987       -8.17445        2.81232
F         -1.65183       -6.74426        1.20118
F         -1.80693       -6.17754        3.32720
F         -3.00827       -3.96150        2.88247
F         -3.72239       -4.52454        0.88014
F         -0.34127       -4.11837        1.87967
F         -1.71673       -2.58964        1.07240
S          2.26025       -7.49484        0.65699
O          1.43706       -8.71205        0.60420
O          3.69704       -7.59961        0.31035
C          2.30990       -7.09094        2.54299
F          1.06422       -6.88336        3.02231
F          2.86746       -8.11093        3.22676
F          3.03835       -5.97219        2.77410
F          3.12327        0.44269       -1.35138
F          3.74042        0.84282        0.70779
H          1.52926       -2.19958       -0.63985
H          4.54198       -5.14565        0.33663
H          5.38937       -0.94692        0.82282
H          1.46992       -6.21124       -2.37944
