31

C          1.15112       -2.63942        0.41700
O          2.48806       -2.20326        0.30344
C          2.65595       -1.26121       -0.75225
C          4.12356       -0.93792       -0.94689
O          4.77806       -2.02351       -1.55880
C          6.15604       -1.71188       -1.89676
C          6.81886       -2.87238       -2.59037
Ga         8.68406       -2.39149       -3.18853
C          9.73307       -4.03777       -3.97866
C          9.04694       -5.19755       -4.74597
C          8.38530       -4.84817       -6.11679
F          7.41965       -3.92552       -5.97931
F          9.28880       -4.40560       -7.01310
F          7.81251       -5.97112       -6.63783
F          9.93328       -6.22169       -5.01202
F          8.05568       -5.72228       -3.95727
F         10.80734       -3.64328       -4.77304
F         10.31207       -4.68986       -2.87378
Cl         8.46794       -0.87000       -4.88077
H          1.11533       -3.37843        1.22868
H          0.79505       -3.11593       -0.51753
H          0.46240       -1.80437        0.66160
H          2.10036       -0.32907       -0.51594
H          2.24773       -1.67289       -1.69650
H          4.58218       -0.68713        0.03336
H          4.19249       -0.02740       -1.58127
H          6.69210       -1.44565       -0.96323
H          6.15508       -0.81321       -2.54546
H          6.23962       -3.15884       -3.48050
H          6.86703       -3.74641       -1.92220
H          9.67935       -1.77747       -2.12140
