54

C          5.69940      -12.06732       -2.14346
C          5.32815      -10.67310       -1.63125
C          6.07788       -9.54560       -2.34735
C          5.73889       -8.14311       -1.83355
C          6.49635       -7.01749       -2.55422
C          6.20436       -5.60462       -2.02351
Al         7.17398       -4.17475       -3.03257
S          6.80057       -2.15982       -1.69570
O          7.22466       -2.33877       -0.30331
O          7.08173       -0.86616       -2.31634
F          5.09809       -2.16613       -1.57858
C          9.18096       -4.31793       -3.00123
C          9.87358       -4.63455       -4.19014
C         11.25828       -4.82382       -4.21875
C         12.03613       -4.69037       -3.05007
C         11.35802       -4.35692       -1.86069
C          9.97007       -4.18283       -1.83983
Si        13.89253       -4.95176       -3.11357
C         14.64992       -3.84214       -4.46907
C         14.30989       -2.35483       -4.32504
C         14.93962       -1.48240       -5.38871
F         14.54481       -1.82188       -6.64919
F         14.62250       -0.16586       -5.22027
F         16.30709       -1.55367       -5.37949
C         14.69399       -4.53041       -1.45206
C         14.31816       -6.73687       -3.57874
H          5.14662      -12.85888       -1.61603
H          6.77409      -12.26430       -2.00902
H          5.48048      -12.16627       -3.21778
H          5.53129      -10.61144       -0.54843
H          4.24182      -10.51479       -1.74348
H          5.86506       -9.60036       -3.43050
H          7.16532       -9.71471       -2.24687
H          5.95794       -8.08540       -0.75242
H          4.65286       -7.96544       -1.93152
H          6.25667       -7.07525       -3.63273
H          7.57969       -7.22583       -2.48332
H          6.46737       -5.54805       -0.95265
H          5.12015       -5.40059       -2.07799
H          6.62621       -3.83642       -4.51623
H          9.31429       -4.73119       -5.12696
H         11.73889       -5.07526       -5.17134
H         11.92049       -4.22791       -0.93097
H          9.49075       -3.91727       -0.89267
H         14.29509       -4.20814       -5.44607
H         15.74316       -3.98434       -4.46241
H         14.65010       -1.95309       -3.35867
H         13.22328       -2.19097       -4.37647
H         14.50004       -3.49050       -1.15325
H         15.78379       -4.67145       -1.49999
H         14.30818       -5.17919       -0.65278
H         13.85434       -7.01103       -4.53708
H         13.94325       -7.43671       -2.81848
H         15.40470       -6.88294       -3.67229
