24

N          1.16309       -0.26736       -0.03006
C          2.59303       -0.04810       -0.32935
N          3.08555        1.18701        0.20709
C          4.35954        1.48718       -0.02554
C          4.88893        2.72459        0.49687
C          6.20002        3.11386        0.29021
C          7.11332        2.32349       -0.44497
C          6.62596        1.11604       -0.96042
C          5.31079        0.69114       -0.77170
C          7.57995        0.21439       -1.68664
F          8.57036        0.89428       -2.34634
F          8.23717       -0.65464       -0.84253
F          6.97750       -0.57739       -2.62425
C          6.70290        4.39482        0.88118
F          5.72232        5.19637        1.38701
F          7.58856        4.19104        1.91773
F          7.39079        5.16537       -0.02648
H          0.67306        0.56584       -0.37267
H          1.07350       -0.18874        0.98839
H          2.69527       -0.10595       -1.43834
H          3.13835       -0.93649        0.06707
H          4.20381        3.35366        1.06466
H          8.13914        2.64216       -0.61044
H          4.99818       -0.25779       -1.20368
