67

N          6.40822       -0.25784       -1.39612
C          5.45003       -1.36150       -1.44775
Sb         3.31634       -0.61827       -1.08849
C          2.55992       -1.65946       -3.04901
C          2.82878       -2.99317       -3.40067
C          2.41434       -3.53996       -4.62230
C          1.71043       -2.76547       -5.56607
C          1.44519       -1.42105       -5.22154
C          1.86148       -0.89246       -3.99510
Si         1.15119       -3.45738       -7.21319
C         -0.69398       -3.03533       -7.47562
C         -1.61240       -3.61406       -6.39092
C         -3.05026       -3.14567       -6.52870
C         -4.12096       -3.84455       -5.61393
C         -3.92969       -3.88691       -4.05120
C         -3.84662       -2.55897       -3.19381
C         -5.06516       -1.56332       -3.24854
C         -5.08900       -0.50608       -2.07934
F         -3.90970        0.12271       -1.96755
F         -6.04294        0.40960       -2.35869
F         -5.39681       -1.08391       -0.90505
F         -5.02829       -0.87387       -4.41382
F         -6.23574       -2.25345       -3.18161
F         -3.71847       -2.97776       -1.90230
F         -2.72363       -1.89015       -3.54241
F         -4.96164       -4.62737       -3.55759
F         -2.77423       -4.55928       -3.79054
F         -5.34240       -3.29005       -5.86142
F         -4.17691       -5.15888       -5.99326
F         -3.15153       -1.79155       -6.31890
F         -3.51727       -3.37258       -7.80994
C          2.08918       -2.68906       -8.66753
C          1.36183       -5.33918       -7.28729
C          2.74010       -2.54138        0.07035
C          3.32774       -2.59147        1.48445
C          2.63704       -1.68803        2.51391
C          1.24309       -2.81254        0.00730
H          6.33156        0.18007       -0.47090
H          6.07997        0.47075       -2.04325
H          5.70158       -2.10807       -0.67885
H          5.48441       -1.84264       -2.43638
H          3.98149        0.24468        0.38327
H          3.78789        0.81153       -2.12296
H          1.67647        0.07462       -0.87202
H          3.37461       -3.64187       -2.70717
H          2.64306       -4.58902       -4.84077
H          0.90413       -0.77406       -5.92304
H          1.63959        0.15785       -3.76806
H         -1.00913       -3.38698       -8.47050
H         -0.78257       -1.93715       -7.48880
H         -1.25777       -3.31806       -5.39265
H         -1.61588       -4.71374       -6.41990
H          2.01570       -1.59249       -8.64691
H          1.69557       -3.04021       -9.63347
H          3.15614       -2.94918       -8.61884
H          0.82228       -5.84783       -6.47579
H          2.42058       -5.62312       -7.20606
H          0.98461       -5.73226       -8.24352
H          3.26486       -3.30242       -0.53199
H          4.39712       -2.31920        1.44122
H          3.30095       -3.63595        1.86416
H          2.66599       -0.63809        2.19041
H          3.13616       -1.75489        3.49315
H          1.58418       -1.97192        2.65846
H          0.65579       -2.00146        0.46743
H          0.96124       -3.75307        0.52377
H          0.90268       -2.89663       -1.03526
