21

S          1.53846       -0.59844        1.31564
C          3.20677       -0.22201        0.62330
C          3.05982        0.32084       -0.79752
C          4.41209        0.69900       -1.43110
B          4.22062        1.29522       -2.92565
C          3.60407        2.80793       -2.96681
C          3.10185        3.31477       -4.29367
O          1.95708        3.67449       -4.51936
O          4.01918        3.37143       -5.30214
I          6.47112        1.44186       -3.88485
H          1.94521       -1.07070        2.51790
H          3.80554       -1.14362        0.62599
H          3.69604        0.51873        1.27080
H          2.38996        1.19703       -0.77404
H          2.55532       -0.43204       -1.42551
H          5.05184       -0.19964       -1.45797
H          4.92877        1.42382       -0.77397
H          3.70507        0.51450       -3.70361
H          4.36063        3.51393       -2.58157
H          2.74250        2.85811       -2.28199
H          4.85453        2.92787       -4.99866
