45

C          8.70536       -2.57125       -2.27384
C          7.90776       -1.35132       -1.80481
C          8.24780       -0.91916       -0.37527
C          7.45307        0.29262        0.12274
C          7.80420        0.70700        1.55993
C          7.00400        1.89876        2.11186
Al         7.49939        2.29904        4.00936
S          5.89315        3.85128        4.89682
O          6.11959        5.21261        4.33181
O          4.49979        3.33738        4.84469
C          6.25002        4.02923        6.68311
C          9.26261        3.27550        4.22608
C          9.42083        4.67077        4.06297
C         10.67049        5.28650        4.19413
C         11.81611        4.53330        4.48340
C         11.68393        3.15639        4.64874
C         10.42402        2.54409        4.52798
C         12.88577        2.30542        4.94725
F         14.02758        3.03032        5.12885
F         12.72270        1.55147        6.07603
F         13.15225        1.41647        3.93956
C         10.83350        6.77384        4.03579
F          9.68028        7.41599        3.74063
F         11.33299        7.36095        5.17283
F         11.72687        7.08939        3.04055
H          8.44214       -2.86273       -3.30153
H          8.51838       -3.43877       -1.62257
H          9.78733       -2.37134       -2.24920
H          6.82814       -1.57043       -1.86967
H          8.08597       -0.50668       -2.49223
H          9.32824       -0.69703       -0.31158
H          8.07652       -1.76967        0.30898
H          6.37207        0.07252        0.06674
H          7.62327        1.14981       -0.55289
H          8.88719        0.92971        1.59808
H          7.66334       -0.17056        2.21750
H          5.92346        1.67689        2.06410
H          7.16086        2.78630        1.47471
H          7.47879        1.02168        5.01379
H          7.27370        4.40130        6.81095
H          6.11906        3.05457        7.16770
H          5.52072        4.75785        7.06147
H          8.54143        5.28560        3.85172
H         12.78847        5.01462        4.58224
H         10.35510        1.46321        4.68528
