84

F         -5.54024       -6.48628       -0.22943
C         -4.67005       -6.79174        0.77469
C         -3.32064       -6.13224        0.60477
C         -3.37295       -4.60186        0.54871
Si        -1.64791       -3.79577        0.32865
C         -0.75613       -4.56652       -1.11017
C         -1.01160       -4.17387       -2.44428
C         -0.42821       -4.79781       -3.53963
C          0.48022       -5.89281       -3.39971
C          0.75654       -6.25976       -2.04563
C          0.16279       -5.63312       -0.95953
C          1.12874       -6.59013       -4.49693
C          1.30264       -5.93203       -5.80519
C          2.35783       -4.75368       -5.88342
C          2.52075       -3.97025       -7.23218
F          2.81575       -4.78855       -8.26339
F          1.41195       -3.27081       -7.54683
F          3.54260       -3.07580       -7.12016
F          2.08384       -3.81131       -4.93693
F          3.59727       -5.27629       -5.60914
F          1.69184       -6.80933       -6.80140
F          0.10789       -5.34256       -6.31151
C          1.61680       -7.95729       -4.33463
C          2.81093       -8.46411       -4.92523
C          3.20645       -9.78792       -4.77351
C          2.46436      -10.71938       -4.01092
C          1.28845      -10.21881       -3.40541
C          0.88111       -8.89999       -3.56130
Si         3.03196      -12.48321       -3.82666
C          4.84076      -12.51559       -3.19747
C          5.06376      -11.60241       -1.98587
C          6.37697      -11.76616       -1.24106
C          7.73669      -11.48781       -1.98038
C          7.96575      -10.11001       -2.70905
C          7.96986       -8.74278       -1.90948
C          9.00607       -8.56550       -0.73645
C          9.23877       -7.06725       -0.30350
F          8.07242       -6.43968       -0.07752
F          9.95756       -7.06362        0.83998
F          9.93182       -6.38916       -1.23419
F          8.56660       -9.23307        0.35636
F         10.21754       -9.06302       -1.10194
F          8.24550       -7.78724       -2.84375
F          6.72589       -8.51828       -1.42426
F          9.16574      -10.20525       -3.34725
F          6.99894       -9.97051       -3.65763
F          8.75769      -11.64866       -1.08744
F          7.89126      -12.43301       -2.95333
F          6.37403      -10.96254       -0.11965
F          6.50334      -13.06309       -0.78111
C          1.95116      -13.42126       -2.58489
C          3.03186      -13.42469       -5.47165
C         -1.95772       -1.94578        0.06520
C         -0.69034       -4.03842        1.94737
F         -5.28668       -6.43098        1.94321
F         -4.56960       -8.15519        0.80118
H         -2.87518       -6.54088       -0.31484
H         -2.70145       -6.48640        1.44345
H         -3.84833       -4.20194        1.45942
H         -4.00045       -4.28795       -0.30079
H         -1.70451       -3.34972       -2.64387
H         -0.69145       -4.44091       -4.53187
H          1.48222       -7.05190       -1.85781
H          0.44408       -5.97258        0.04256
H          3.44706       -7.79504       -5.50230
H          4.13883      -10.09934       -5.25801
H          0.65733      -10.88551       -2.81006
H         -0.05242       -8.57686       -3.09825
H          5.49953      -12.22105       -4.02788
H          5.10074      -13.55645       -2.94669
H          4.30755      -11.79495       -1.20678
H          4.94605      -10.54649       -2.26579
H          1.95571      -12.95030       -1.59165
H          2.30252      -14.45734       -2.47010
H          0.90624      -13.45943       -2.92502
H          3.64087      -12.89931       -6.22133
H          2.01138      -13.50273       -5.87278
H          3.43426      -14.44297       -5.35874
H         -2.51014       -1.76364       -0.86780
H         -1.00814       -1.39585        0.00037
H         -2.54565       -1.51870        0.89131
H         -0.52566       -5.10100        2.17684
H         -1.23723       -3.59574        2.79331
H          0.29698       -3.55837        1.89153
