40

S          2.10862       -1.82837        0.14686
C          3.36435       -0.46769        0.10729
C          3.76602       -0.18775       -1.34202
C          4.81953        0.89776       -1.46529
Sb         5.25178        1.36466       -3.66546
C          4.76949        3.59411       -3.31264
C          5.22377        4.35536       -2.22605
C          4.86444        5.70207       -2.06543
C          4.02901        6.34048       -2.99150
C          3.56804        5.58571       -4.08325
C          3.93552        4.24400       -4.23347
C          3.63331        7.78922       -2.82261
C          7.45094        1.75508       -3.09688
C          8.20411        2.32354       -4.26749
S          9.99189        2.60302       -3.88700
C         10.57792        3.19663       -5.50276
H          1.89317       -1.82680        1.48402
H          4.23518       -0.77727        0.70199
H          2.92321        0.42819        0.56578
H          2.86422        0.09846       -1.91179
H          4.13691       -1.12127       -1.80062
H          5.77590        0.59286       -1.01142
H          4.48881        1.83946       -1.00101
H          5.60809        1.77337       -5.38135
H          5.62310       -0.38277       -3.94815
H          3.51675        1.11413       -4.06741
H          5.87573        3.90292       -1.47185
H          5.23907        6.26933       -1.20592
H          2.91210        6.05942       -4.82231
H          3.55579        3.68196       -5.09564
H          4.10592        8.22978       -1.93320
H          2.54290        7.90301       -2.71154
H          3.93012        8.39563       -3.69328
H          7.84071        0.77575       -2.78237
H          7.45541        2.43866       -2.23603
H          7.77879        3.29208       -4.57693
H          8.16271        1.64512       -5.13497
H         11.65618        3.38745       -5.41942
H         10.07375        4.12969       -5.79283
H         10.41209        2.43945       -6.28306
