36

N          4.59467       -1.81961       -2.14343
C          3.67723       -0.75219       -2.58942
C          3.25224        0.14950       -1.43192
C          4.38795        0.91509       -0.71077
C          5.34526        1.71706       -1.56105
S          5.01507        3.27210       -1.98086
O          3.95452        3.87927       -1.16978
O          6.21699        4.04207       -2.33643
C          4.15336        3.29566       -3.74026
C          3.69467        4.60887       -4.44003
C          4.72974        5.74036       -4.81187
C          5.95605        5.39046       -5.72999
F          5.55380        4.77259       -6.86333
F          6.55611        6.55692       -6.09124
F          6.86887        4.63266       -5.12134
F          4.00917        6.67842       -5.51771
F          5.19726        6.34104       -3.69890
F          3.06845        4.27839       -5.63110
F          2.76004        5.21950       -3.66024
F          4.98809        2.64584       -4.63287
F          3.00487        2.53509       -3.66310
C          6.61344        1.11605       -2.08564
C          7.62099        0.64229       -1.03636
O          7.60598        0.83291        0.15424
O          8.67036       -0.08496       -1.58298
H          4.76601       -2.48097       -2.90192
H          4.15958       -2.35354       -1.38783
H          2.76468       -1.14470       -3.08295
H          4.20524       -0.14266       -3.34011
H          2.70266       -0.45952       -0.68666
H          2.53018        0.87851       -1.82805
H          4.99408        0.20146       -0.12995
H          3.91577        1.58121        0.02701
H          7.14740        1.86551       -2.69438
H          6.43861        0.23908       -2.74585
H          8.49727       -0.16683       -2.53821
