50

N          1.53740       -0.70543        1.28212
Ga         2.69395        0.00751       -0.11342
C          3.84764       -1.56032       -0.70836
C          3.94485       -2.72212        0.07950
C          4.72852       -3.81481       -0.29465
C          5.45617       -3.77427       -1.49299
C          5.37424       -2.63361       -2.31002
C          4.57864       -1.55885       -1.91360
C          6.31418       -4.93119       -1.90003
C          7.87871       -4.71977       -1.87364
C          8.57666       -4.16779       -0.56983
C          8.51192       -4.94264        0.80555
C          9.07038       -6.41561        0.95781
C         10.57439       -6.71080        0.60229
F         11.40316       -5.83643        1.20248
F         10.87497       -7.95222        1.04803
F         10.79033       -6.68180       -0.72103
F          8.92904       -6.71506        2.28271
F          8.30471       -7.27564        0.24663
F          9.21067       -4.17182        1.68828
F          7.22451       -4.99322        1.22295
F          9.90763       -4.04101       -0.87305
F          8.08949       -2.93151       -0.31419
F          8.49047       -5.89931       -2.19858
F          8.20327       -3.81576       -2.84324
F          6.07422       -6.04925       -1.13232
F          6.06688       -5.30710       -3.21408
C          3.85460        1.47314        0.70632
C          5.25631        1.54995        0.09926
C          6.07766        2.72658        0.66283
C          7.47185        2.94109        0.11162
C          8.52058        1.81162        0.37395
F          8.23489        0.69156       -0.31612
F          9.76323        2.21328        0.01169
F          8.55777        1.50017        1.69335
F          7.45674        3.14484       -1.25130
F          8.02293        4.08788        0.66868
H          0.71435       -1.15138        0.86839
H          1.16034        0.05960        1.84731
H          1.93785        0.56529       -1.43199
H          3.37651       -2.76762        1.01365
H          4.77339       -4.70311        0.33535
H          5.92167       -2.59652       -3.25358
H          4.51783       -0.69092       -2.57817
H          3.92584        1.30109        1.79464
H          3.32984        2.43492        0.56831
H          5.19828        1.65536       -0.99700
H          5.78646        0.60284        0.28070
H          6.16873        2.63480        1.75587
H          5.54754        3.67313        0.46801
