61

C          1.48466        1.92040       -0.33589
C          0.17905        1.17827       -0.17524
C         -0.77142        1.16247       -1.21037
C         -1.98812        0.49471       -1.05097
C         -2.31701       -0.19723        0.13575
C         -1.35006       -0.18416        1.15534
C         -0.13223        0.49442        1.00818
Nb        -4.43264       -0.84477        0.08838
C         -5.45242       -2.80795       -0.07451
C         -6.55082       -3.13164       -0.91742
C         -7.12276       -4.39867       -0.93758
C         -6.62764       -5.44246       -0.12670
C         -5.55711       -5.17559        0.71384
C         -4.99110       -3.88298        0.74604
C         -3.90495       -3.49285        1.61906
O         -3.44026       -2.34410        1.58944
O         -3.36077       -4.36473        2.52001
C         -5.41229        1.17746       -0.15821
C         -5.53092        1.94956       -1.33664
C         -5.93155        3.28567       -1.33159
C         -6.26108        3.91136       -0.11683
C         -6.17895        3.17885        1.07594
C         -5.75854        1.84523        1.04076
C         -6.66006        5.35670       -0.10517
C         -8.06029        5.73846       -0.72292
C         -9.37662        5.08982       -0.14914
C         -9.85554        5.36660        1.33594
C        -10.08150        6.85798        1.78992
C        -10.96612        7.00798        3.08667
F        -10.52793        6.20719        4.07502
F        -10.89007        8.28822        3.50977
F        -12.25767        6.72824        2.83776
F         -8.88632        7.43441        2.05755
F        -10.70638        7.56271        0.80979
F        -11.05946        4.72612        1.44546
F         -8.99161        4.78412        2.19913
F        -10.39237        5.50205       -0.96558
F         -9.27848        3.74185       -0.25232
F         -8.22323        7.09606       -0.65407
F         -8.04526        5.39658       -2.04346
F         -6.65190        5.88512        1.16646
F         -5.77027        6.11866       -0.84837
H          1.99901        1.63896       -1.26791
H          2.16637        1.71471        0.50129
H          1.32695        3.01068       -0.37486
H         -0.55077        1.67911       -2.15068
H         -2.69825        0.50797       -1.88792
H         -1.54424       -0.72457        2.08615
H          0.59535        0.49096        1.82724
H         -5.14659       -0.79339       -1.53316
H         -3.80524       -2.03732       -1.05390
H         -5.59650       -1.11463        1.43736
H         -6.95263       -2.35627       -1.57326
H         -7.97084       -4.59673       -1.59981
H         -7.07531       -6.43668       -0.16237
H         -5.16440       -5.98810        1.34025
H         -3.84079       -5.20739        2.43828
H         -5.29128        1.48426       -2.29639
H         -5.97903        3.84888       -2.26542
H         -6.42757        3.65390        2.02598
H         -5.70246        1.30516        1.99143
