25

C          7.75470       -1.83915        0.03526
S          6.88772       -1.10357        1.45014
C          6.11358        0.33058        0.59841
C          5.02352        0.97984        1.45470
B          5.56524        1.78734        2.77692
C          4.35516        2.55308        3.59391
C          3.13968        1.75739        4.11140
C          3.34797        0.83023        5.30743
O          2.41906        0.50588        6.06247
N          4.61863        0.38115        5.48125
F          6.52291        2.80857        2.34708
H          8.27534       -2.73590        0.39754
H          8.50146       -1.14728       -0.38208
H          7.05537       -2.13422       -0.76222
H          5.72592       -0.06501       -0.35739
H          6.90692        1.06235        0.37723
H          4.27479        0.21037        1.71805
H          4.49932        1.70594        0.80076
H          6.20629        0.98142        3.50587
H          3.96441        3.31786        2.89514
H          4.78659        3.12715        4.43516
H          2.73901        1.11285        3.30683
H          2.30200        2.40963        4.40652
H          5.34260        0.58890        4.77524
H          4.77555       -0.31668        6.19886
