37

C          6.04498        0.03898        4.10131
C          5.57386       -0.04065        2.64663
C          5.56638        1.31580        1.93348
C          5.06226        1.22702        0.49109
C          5.06599        2.54367       -0.31337
C          6.40580        3.11140       -0.79039
S          7.08350        2.39071       -2.15420
O          6.27602        1.22750       -2.52939
O          7.56260        3.29352       -3.19695
C          8.78900        1.57606       -1.72649
C          8.83170        0.37259       -0.74155
F          8.08623       -0.66355       -1.17309
F         10.11503       -0.08158       -0.61368
F          8.41099        0.71925        0.49207
F          9.33442        1.11854       -2.89899
F          9.63060        2.52686       -1.21981
C          6.78503        4.47608       -0.42240
C          7.10098        4.74472        1.10419
C          7.60769        6.17539        1.51160
F          6.73069        7.14626        1.18866
F          7.77111        6.21528        2.86556
F          8.79841        6.47431        0.95797
F          5.99125        4.51646        1.87436
F          8.08287        3.88662        1.51518
F          7.89489        4.95004       -1.08069
F          5.74619        5.43561       -0.68938
H          6.03907       -0.94770        4.58870
H          5.39890        0.70742        4.69148
H          7.06899        0.43691        4.16248
H          4.56030       -0.47785        2.61135
H          6.22267       -0.73540        2.08758
H          6.58256        1.73755        1.94764
H          4.93485        2.02145        2.50218
H          4.02197        0.85157        0.50826
H          5.64078        0.47277       -0.06348
H          4.57271        3.32760        0.28137
H          4.41522        2.38862       -1.18820
