38

F          3.93502       -0.19409        0.92068
C          3.45113        0.63204       -0.04653
C          2.10945        1.23246        0.44835
In         2.06578        2.49619        2.35527
S          3.67831        1.54056        4.24526
O          3.03617        0.75301        5.30496
O          4.90723        1.01994        3.62503
C          4.40403        3.13025        5.16607
C          3.41194        3.84067        6.13144
C          3.81928        5.30438        6.55128
C          3.03551        5.88900        7.78254
F          1.70800        5.77065        7.61648
F          3.39084        5.27630        8.92751
F          3.33522        7.20375        7.90564
F          5.14344        5.33280        6.87617
F          3.60999        6.14673        5.50776
F          2.19813        3.91593        5.51659
F          3.28813        3.09629        7.26273
F          5.50391        2.73003        5.84743
F          4.78857        4.00503        4.18907
S         -0.45352        2.31805        3.17806
O         -0.74899        3.41935        4.10895
O         -1.30221        2.16340        1.98380
C         -0.91527        0.77031        4.28977
C         -0.65268       -0.62298        3.66619
F         -1.41369       -0.82675        2.57623
F          0.64743       -0.73505        3.31829
F         -0.93230       -1.61205        4.55668
F         -0.21381        0.85981        5.44598
F         -2.24217        0.87729        4.56950
F          1.63478        2.04746       -0.57430
F          1.24122        0.16714        0.53130
C          4.56798        1.67240       -0.38661
F          5.73839        1.03736       -0.60844
F          4.26337        2.38052       -1.49300
F          4.74532        2.54013        0.63564
F          3.26351       -0.11719       -1.18190
H          2.28462        4.21197        2.23332
