32

C          0.83660        0.51038        0.42304
C          2.32360        0.23938        0.17806
C          3.00441       -0.50931        1.32868
C          4.50129       -0.76408        1.10195
C          5.19189       -1.51515        2.25310
Al         7.13072       -1.81481        1.97350
S          8.28490        0.31085        2.41047
O          7.37384        1.36687        2.89295
O          9.59353        0.16179        3.07992
C          8.78787        0.97980        0.66277
F          7.71639        0.98657       -0.17504
F          9.24914        2.24841        0.75573
F          9.75436        0.22618        0.08804
S          8.00187       -3.27123        3.63463
O          7.64795       -2.89562        5.02265
O          7.59976       -4.63012        3.18091
C          9.81892       -3.24684        3.57085
H          0.37492        1.05016       -0.41730
H          0.68981        1.11634        1.33014
H          0.27962       -0.42903        0.56292
H          2.84912        1.19467        0.00959
H          2.44460       -0.33968       -0.75374
H          2.49205       -1.47468        1.49259
H          2.87744        0.06419        2.26399
H          4.99806        0.20801        0.93837
H          4.62529       -1.32488        0.15809
H          4.71096       -2.49743        2.40792
H          5.06045       -0.96153        3.19766
H          7.76059       -2.23962        0.55860
H         10.15851       -2.23078        3.80451
H         10.14000       -3.55247        2.56785
H         10.15220       -3.97016        4.32707
