57

C          6.83490       -7.13140       -9.06988
C          6.47683       -6.27547       -7.85239
C          6.60431       -4.77038       -8.10727
C          6.29915       -3.91202       -6.87721
C          6.44209       -2.40742       -7.12537
C          6.18118       -1.53041       -5.89145
Ga         7.20323       -1.85694       -4.16188
C          6.07702       -3.27776       -3.04205
C          6.68439       -4.59628       -2.52213
F          7.22270       -5.32244       -3.53636
F          7.67396       -4.35543       -1.61819
F          5.78227       -5.40982       -1.89503
F          5.54248       -2.67113       -1.89776
F          4.95586       -3.68848       -3.78371
C          9.16241       -2.36052       -4.43582
C          9.79949       -2.04980       -5.65642
C         11.15649       -2.28468       -5.88370
C         11.94490       -2.84869       -4.86860
C         11.35084       -3.15923       -3.63638
C          9.99000       -2.91450       -3.43724
C         13.39660       -3.12717       -5.11792
C         14.38131       -1.89451       -5.14590
C         14.53087       -0.97505       -3.87445
C         15.14817       -1.52520       -2.52147
C         16.58964       -2.15871       -2.55435
C         17.27837       -2.26898       -1.14021
F         16.47161       -2.87194       -0.24809
F         18.40021       -3.00972       -1.27033
F         17.63015       -1.06125       -0.66485
F         16.52018       -3.41347       -3.05774
F         17.41721       -1.41147       -3.33185
F         15.20413       -0.43986       -1.69068
F         14.29934       -2.42596       -1.97440
F         15.31635        0.07659       -4.25529
F         13.31026       -0.48679       -3.54343
F         15.63754       -2.33209       -5.46924
F         13.97221       -1.05752       -6.14254
F         13.91963       -4.01168       -4.20076
F         13.57989       -3.70368       -6.36546
H          6.73443       -8.20620       -8.85809
H          7.87307       -6.94993       -9.38809
H          6.18373       -6.89734       -9.92672
H          7.12499       -6.55098       -7.00387
H          5.44672       -6.50214       -7.52876
H          5.93347       -4.48313       -8.93828
H          7.62963       -4.55025       -8.45684
H          6.97466       -4.20656       -6.05693
H          5.27969       -4.12874       -6.51482
H          5.76116       -2.12597       -7.95451
H          7.45958       -2.22131       -7.51297
H          5.11479       -1.59570       -5.61562
H          6.35338       -0.47222       -6.15155
H          7.15834       -0.57167       -3.21442
H          9.21754       -1.60712       -6.46855
H         11.60072       -2.04397       -6.85088
H         11.94978       -3.60121       -2.83905
H          9.56655       -3.17057       -2.46452
