134

F         -1.10209       -4.55145        1.05431
C         -0.25556       -3.50025        1.33093
C         -0.19964       -3.45959        2.90105
C          0.67848       -2.37872        3.63966
C          0.41348       -0.82842        3.45758
C         -1.00612       -0.26482        3.83827
C         -1.05917        1.30349        3.99549
F         -0.54054        1.91679        2.91658
F         -2.34918        1.67340        4.12229
F         -0.39506        1.70974        5.09165
F         -1.89589       -0.60012        2.87629
F         -1.40914       -0.79542        5.02294
F          1.32712       -0.21500        4.26689
F          0.69077       -0.48686        2.17580
F          0.58726       -2.65005        4.96991
F          1.97898       -2.56389        3.26842
F         -1.46755       -3.34566        3.38817
F          0.30348       -4.66103        3.32015
C          1.06555       -3.67653        0.60182
C          0.89888       -3.76679       -0.91986
Si         2.53214       -3.99227       -1.88664
C          2.17302       -3.76009       -3.70674
C          1.55254       -2.58004       -4.16625
C          1.31141       -2.36954       -5.52743
C          1.68052       -3.31171       -6.50758
C          2.29241       -4.49015       -6.03595
C          2.53159       -4.71690       -4.67705
Ga         1.46610       -2.99999       -8.50199
C          0.89160       -1.08784       -8.85845
C          1.73388       -0.03360       -8.44618
C          1.44891        1.30382       -8.72885
C          0.29584        1.66746       -9.45745
C         -0.55390        0.62313       -9.87190
C         -0.26254       -0.71374       -9.57170
Si        -0.03340        3.46959       -9.84810
C          1.51763        4.21533      -10.68063
C          1.95863        3.46382      -11.94407
C          3.23043        4.02986      -12.55107
C          3.84935        3.24860      -13.76713
C          3.01618        3.04263      -15.08965
C          2.55477        4.27059      -15.97733
C          3.65602        5.25043      -16.53117
C          3.16844        6.15944      -17.72382
F          2.01338        6.78152      -17.42020
F          4.11027        7.09597      -17.95901
F          2.99732        5.44512      -18.84947
F          4.06066        6.07825      -15.53931
F          4.72289        4.54419      -16.98669
F          1.92566        3.71480      -17.05509
F          1.63966        4.99369      -15.28563
F          3.75715        2.23085      -15.89115
F          1.86741        2.38043      -14.77270
F          5.02157        3.84959      -14.12668
F          4.13944        1.98911      -13.33371
F          3.05387        5.33718      -12.95485
F          4.24343        4.04907      -11.61876
C         -1.51442        3.66097      -11.01101
C         -0.33667        4.47917       -8.27591
C          0.24470       -4.41084       -9.29927
C         -0.56813       -5.25419       -8.51558
C         -1.27033       -6.33074       -9.06593
C         -1.20625       -6.62026      -10.44523
C         -0.42105       -5.76422      -11.24311
C          0.28362       -4.69605      -10.67843
Si        -2.09256       -8.11826      -11.13582
C         -3.94340       -8.01798      -10.67516
C         -4.62796       -6.75716      -11.21903
C         -6.08936       -6.66426      -10.81943
C         -6.87544       -5.38735      -11.28977
C         -6.96817       -5.03329      -12.82474
C         -7.58501       -6.03825      -13.88330
C         -9.08054       -6.49084      -13.70525
C         -9.66356       -7.33003      -14.90592
F         -9.70904       -6.61382      -16.04253
F         -8.93624       -8.44190      -15.11881
F        -10.92213       -7.69756      -14.58746
F         -9.19982       -7.26426      -12.60098
F         -9.86873       -5.39233      -13.56824
F         -7.50174       -5.38884      -15.08085
F         -6.79659       -7.14143      -13.94786
F         -7.67696       -3.87536      -12.91106
F         -5.70511       -4.78422      -13.27428
F         -8.15256       -5.45218      -10.81499
F         -6.27283       -4.30351      -10.72059
F         -6.79861       -7.76049      -11.26403
F         -6.21618       -6.65468       -9.44875
C         -1.93001       -8.20762      -13.02030
C         -1.42208       -9.71903      -10.38131
C          3.77557       -2.69607       -1.27903
C          3.22193       -5.71742       -1.52568
F         -0.90331       -2.35955        0.91979
H          1.54141       -4.58085        1.01075
H          1.70986       -2.82730        0.86782
H          0.23393       -4.60269       -1.18575
H          0.41108       -2.85480       -1.29721
H          1.25440       -1.80396       -3.45154
H          0.83057       -1.43573       -5.83577
H          2.60507       -5.25535       -6.75414
H          3.01316       -5.65093       -4.37017
H          2.90385       -3.19718       -9.18945
H          2.65214       -0.26541       -7.89645
H          2.14400        2.07724       -8.38142
H         -1.45957        0.85301      -10.44249
H         -0.95342       -1.48935       -9.91781
H          2.33140        4.20106       -9.93897
H          1.32460        5.27496      -10.91311
H          1.17622        3.50053      -12.71507
H          2.13908        2.40185      -11.71856
H         -1.37223        3.11274      -11.95312
H         -1.68163        4.71999      -11.25683
H         -2.43293        3.27815      -10.54384
H          0.50585        4.37394       -7.57748
H         -1.23986        4.12642       -7.75823
H         -0.46439        5.54933       -8.49694
H         -0.63516       -5.08197       -7.43674
H         -1.86818       -6.96552       -8.40125
H         -0.34165       -5.94349      -12.32024
H          0.90760       -4.07973      -11.33399
H         -4.01929       -8.03941       -9.57685
H         -4.45615       -8.92015      -11.04481
H         -4.57789       -6.73194      -12.31646
H         -4.12283       -5.85048      -10.85301
H         -2.31762       -7.30547      -13.51457
H         -2.47992       -9.07384      -13.41690
H         -0.87711       -8.31721      -13.31690
H         -1.49384       -9.69469       -9.28463
H         -0.36143       -9.84971      -10.63876
H         -1.97306      -10.60114      -10.74005
H          3.39659       -1.67722       -1.44507
H          4.71547       -2.78953       -1.84160
H          4.01274       -2.80351       -0.20995
H          2.52511       -6.50324       -1.85003
H          3.41192       -5.85597       -0.45100
H          4.17464       -5.87810       -2.05022
