50

N          2.72867       -1.43617        1.37835
Al         3.66011       -0.78384       -0.11134
C          4.28780        1.08428        0.41603
C          5.39604        1.70274       -0.20392
C          5.87655        2.95627        0.18401
C          5.27146        3.67354        1.23854
C          4.15804        3.07624        1.86328
C          3.68506        1.82317        1.45667
Si         5.96377        5.32017        1.78577
C          5.75741        6.60248        0.38116
C          6.40179        7.96369        0.66239
C          6.20892        8.98634       -0.43631
F          4.89590        9.27747       -0.65840
F          6.82134       10.17415       -0.12944
F          6.72968        8.58298       -1.62940
C          5.07031        5.97249        3.32351
C          7.81439        5.17263        2.17607
C          2.36405       -0.79076       -1.68123
C          1.00815       -0.11862       -1.44398
C          0.05381       -0.26701       -2.64844
C         -1.31803        0.33882       -2.45085
C         -2.28335        0.18823       -3.66636
F         -1.77814        0.80062       -4.76493
F         -2.47575       -1.11836       -3.97316
F         -3.49662        0.73272       -3.41449
F         -1.97647       -0.23264       -1.38076
F         -1.24774        1.69302       -2.19650
H          3.22654       -1.48294        2.26744
H          2.23599       -2.32411        1.28186
H          5.01530       -1.59819       -0.59605
H          5.91730        1.17213       -1.00914
H          6.74744        3.37640       -0.33424
H          3.65561        3.59341        2.68788
H          2.82209        1.39172        1.97567
H          4.67867        6.72303        0.19532
H          6.18005        6.16783       -0.53814
H          7.48892        7.87049        0.80589
H          5.99438        8.42231        1.57674
H          3.99703        6.11678        3.13450
H          5.48753        6.93591        3.65248
H          5.16946        5.26612        4.15987
H          8.37514        4.81110        1.30214
H          7.96928        4.44590        2.98631
H          8.25582        6.12936        2.49303
H          2.20297       -1.85223       -1.95702
H          2.85993       -0.33559       -2.55961
H          1.14786        0.95349       -1.23186
H          0.52653       -0.54433       -0.54992
H         -0.08794       -1.33438       -2.87914
H          0.49935        0.19846       -3.54130
