17

N          1.75620        0.57588       -0.42425
C          2.86487       -0.07276        0.31160
C          2.72960        0.17793        1.81798
N          3.77128       -0.51921        2.56109
S          4.77170        0.31484        3.39652
O          4.31820        1.63205        3.87392
O          5.51694       -0.52685        4.33027
C          6.17731        0.85421        2.22085
F          6.76343       -0.20318        1.59125
F          5.71473        1.68319        1.22870
F          7.17784        1.53623        2.85090
H          1.90266        0.47445       -1.43027
H          1.78729        1.58223       -0.24088
H          3.86712        0.26322       -0.00955
H          2.81248       -1.15745        0.12749
H          1.73703       -0.19398        2.13641
H          2.72702        1.27060        2.00667
