40

N          1.92495       -2.63615        0.87972
C          2.37814       -1.64793        0.05027
O          1.60730       -0.85767       -0.50529
C          3.88751       -1.58796       -0.12359
C          4.60341       -0.78904        0.97820
Ta         6.10119       -2.35947        1.29997
C          4.68441       -3.78413        2.37694
C          4.21623       -5.04777        1.94524
C          3.29954       -5.81633        2.67535
C          2.77579       -5.35523        3.89212
C          3.21679       -4.10418        4.34899
C          4.14941       -3.35738        3.61955
C          1.79377       -6.18196        4.68842
C          8.35322       -2.71288        0.96588
C          9.04356       -1.43570        0.49993
C          8.46359       -0.26363        1.24244
O          7.30551       -0.30007        1.67953
N          9.23056        0.85681        1.42275
H          0.95147       -2.60622        1.15812
H          2.57507       -3.20197        1.42261
H          4.10181       -1.15296       -1.10427
H          4.28995       -2.64632       -0.17475
H          3.99454       -0.71923        1.89910
H          4.88727        0.21828        0.66199
H          5.99181       -3.79376        0.23101
H          6.54754       -1.84712       -0.40584
H          6.79612       -2.40962        2.99031
H          4.58240       -5.43557        0.99080
H          2.97426       -6.78789        2.28667
H          2.82792       -3.71518        5.29681
H          4.48027       -2.40289        4.04199
H          1.01146       -6.61266        4.04471
H          1.30081       -5.57855        5.46431
H          2.29150       -7.02569        5.19532
H          8.46592       -3.49229        0.19999
H          8.81442       -3.07748        1.89847
H          8.76204       -1.25747       -0.55692
H         10.15267       -1.41394        0.56009
H         10.11264        0.94611        0.93707
H          8.77494        1.69576        1.76302
