43

C          2.80962       -2.11529       -0.86664
C          4.31400       -1.84577       -0.97757
C          4.67482       -0.60860       -1.82169
C          4.21993        0.74926       -1.26533
B          4.68317        2.08223       -2.15160
C          3.84303        2.16350       -3.60708
C          2.62901        3.11289       -3.55105
C          1.56723        2.75132       -2.50883
C          4.69346        2.56092       -4.82526
C          6.32958        2.12967       -2.32842
C          7.09702        2.16334       -1.00161
C          8.61925        2.31322       -1.12874
C          9.34944        2.27670        0.21080
N         10.80846        2.45284        0.04002
H          2.59721       -3.01062       -0.26113
H          2.36591       -2.27091       -1.86309
H          2.28847       -1.26382       -0.40726
H          4.80574       -2.74208       -1.40016
H          4.73193       -1.71606        0.03716
H          4.26369       -0.74919       -2.83995
H          5.77184       -0.59749       -1.95032
H          4.60382        0.83496       -0.22791
H          3.11897        0.74183       -1.16190
H          4.37925        3.09890       -1.48218
H          3.43476        1.15350       -3.83334
H          2.14111        3.17238       -4.54832
H          3.00122        4.13131       -3.33220
H          1.16693        1.73941       -2.68616
H          0.71902        3.45569       -2.53068
H          2.00201        2.76546       -1.50001
H          5.12677        3.56794       -4.69545
H          4.10084        2.58549       -5.76162
H          5.53608        1.87107       -4.98203
H          6.62054        3.02746       -2.90798
H          6.71303        1.27187       -2.92228
H          6.88262        1.24409       -0.42601
H          6.70397        2.99396       -0.38616
H          8.86393        3.25612       -1.64729
H          9.00985        1.49952       -1.77024
H          9.08597        1.33346        0.73092
H          8.98622        3.09969        0.84887
H         11.14984        1.74537       -0.61501
H         11.29023        2.27249        0.92304
