65

C          0.99105        0.48662        4.36735
O          2.11155       -0.35515        4.19967
C          3.23508        0.08543        4.95570
C          4.44254       -0.80012        4.66571
O          4.98142       -0.68732        3.36349
C          5.65729        0.55345        3.07282
C          6.85783        0.87192        3.95756
Ga         8.34091       -0.49695        4.05790
S          9.57399        0.38630        2.03272
O          8.61234        0.79269        0.98408
O         10.62610        1.36546        2.37930
C         10.70661       -0.95005        1.09385
C         10.10044       -2.25550        0.49501
C          8.94094       -2.10386       -0.55615
C          8.68520       -3.39162       -1.42704
F          9.67513       -3.60244       -2.31727
F          8.55500       -4.49188       -0.65956
F          7.53709       -3.22561       -2.12223
F          7.78205       -1.84035        0.08995
F          9.21391       -1.09946       -1.42854
F         11.11888       -2.95609       -0.12168
F          9.63760       -3.02561        1.51501
F         11.35290       -0.28086        0.10021
F         11.65179       -1.37091        1.99721
C          9.58233       -0.07651        5.58654
C          9.03330        0.22008        6.85048
C          9.83215        0.55835        7.94639
C         11.23577        0.62440        7.83190
C         11.79061        0.32107        6.57326
C         10.98459       -0.02114        5.48248
Si        12.28725        1.11839        9.30408
C         12.12302       -0.19510       10.68041
C         12.55376       -1.59997       10.24621
C         12.43190       -2.64292       11.33510
F         11.15119       -2.79628       11.77588
F         12.84822       -3.87193       10.90818
F         13.18763       -2.34164       12.43506
C         14.10979        1.26752        8.82112
C         11.69829        2.76125       10.03417
H          0.18357        0.08579        3.74013
H          1.20812        1.52587        4.05171
H          0.64770        0.51157        5.42150
H          3.00816        0.03073        6.04176
H          3.45769        1.14479        4.71971
H          4.13937       -1.85332        4.77111
H          5.20512       -0.59415        5.44210
H          4.91724        1.38099        3.09409
H          5.98410        0.44212        2.03007
H          6.55166        1.13055        4.98551
H          7.32393        1.78670        3.55797
H          8.11848       -2.00747        3.69506
H          7.94710        0.20142        6.99088
H          9.34787        0.78808        8.90214
H         12.87449        0.36568        6.43077
H         11.46576       -0.21919        4.52244
H         11.07094       -0.21517       11.00660
H         12.71495        0.13095       11.55083
H         13.60534       -1.61772        9.92230
H         11.94981       -1.95364        9.39728
H         14.51254        0.32692        8.41942
H         14.71899        1.54825        9.69308
H         14.25014        2.03955        8.05135
H         10.63764        2.71122       10.31905
H         11.80443        3.57039        9.29796
H         12.27668        3.03444       10.92925
