18

O          3.88093        0.06317       -1.63869
Ga         2.52955       -0.01392       -0.42579
S          3.78366        1.11336        1.37584
O          4.42962        0.11898        2.25152
O          4.62951        2.15156        0.76001
C          2.70076        2.18235        2.60114
C          1.78654        1.36122        3.54581
F          2.50232        0.69877        4.47365
F          0.90942        2.16755        4.20267
F          1.06839        0.46630        2.83161
F          3.54131        2.93721        3.35863
F          1.91829        3.00908        1.86000
S          0.88297        1.65218       -1.12380
O         -0.34036        1.68013       -0.32931
O          1.42111        2.91270       -1.61688
F          0.41412        0.84297       -2.53728
H          4.31187        0.93224       -1.57244
H          1.83650       -1.33783       -0.02903
