52

C          0.76505       -0.05237       -0.95944
O          2.16034        0.05253       -0.76417
C          2.79870       -1.21999       -0.81185
C          4.29795       -1.03428       -0.61823
O          4.87193       -2.32254       -0.66060
C          6.30346       -2.30921       -0.51552
C          6.79400       -3.73935       -0.68493
C          8.31629       -3.94500       -0.56752
C          9.12880       -3.18636       -1.72711
O         10.37507       -3.14024       -1.54226
O          8.45194       -2.76853       -2.70088
C          8.88094       -3.44231        0.78313
C          8.35031       -4.12566        2.04987
C          8.99976       -3.70478        3.36037
O          8.49617       -3.85324        4.45452
O         10.24817       -3.15714        3.26119
C          8.65393       -5.44834       -0.72452
C          8.34994       -6.05329       -2.10058
C          8.83557       -7.50033       -2.20703
C          8.51222       -8.13974       -3.55569
N          8.99496       -9.51576       -3.60028
C          8.78618      -10.33054       -4.69721
N          8.07831      -10.09072       -5.74977
N          9.45831      -11.56286       -4.58900
H          0.34975        0.96314       -0.91464
H          0.28749       -0.67170       -0.17454
H          0.52257       -0.49776       -1.94427
H          2.61021       -1.71228       -1.78588
H          2.40051       -1.88303       -0.01848
H          4.49312       -0.53368        0.35283
H          4.70636       -0.38324       -1.41649
H          6.55310       -1.89574        0.48284
H          6.76225       -1.67235       -1.29112
H          6.48297       -4.05716       -1.68917
H          6.26491       -4.37916        0.04621
H          8.71339       -2.35549        0.86001
H          9.97437       -3.57534        0.66774
H          8.49670       -5.21765        1.99080
H          7.26845       -3.97759        2.18029
H         10.46529       -3.08202        2.30912
H          8.11832       -6.04366        0.04026
H          9.73438       -5.55872       -0.52914
H          8.82266       -5.43651       -2.88060
H          7.26545       -6.02314       -2.29701
H          8.38665       -8.11333       -1.40617
H          9.92920       -7.52656       -2.04803
H          8.94895       -7.53186       -4.37101
H          7.42067       -8.15022       -3.70983
H          9.87141       -9.67383       -3.11007
H          7.76066       -9.11814       -5.76333
H          9.36690      -11.99779       -3.67325
H          9.15262      -12.18789       -5.33082
