32

C          1.26692        0.37215       -0.25537
S          3.01277        0.24327        0.22059
C          3.34386       -1.47822       -0.30425
C          4.81841       -1.80606       -0.05205
C          5.26541       -3.24741       -0.44447
C          4.87906       -4.21433        0.67666
F          3.57465       -4.14110        1.06446
F          5.12500       -5.52321        0.40686
F          5.60139       -3.95264        1.84464
C          4.55833       -3.59489       -1.86088
O          4.96706       -2.85766       -2.79298
O          3.68711       -4.49187       -1.85653
C          6.80876       -3.19158       -0.60739
C          7.62647       -4.48611       -0.81063
C          7.24025       -5.27135       -2.07271
C          9.11989       -4.12366       -0.84314
H          0.92933        1.38094        0.01611
H          0.65175       -0.36413        0.28146
H          1.13876        0.23146       -1.33779
H          3.12443       -1.56885       -1.37704
H          2.67422       -2.14372        0.25365
H          5.07498       -1.61229        1.00358
H          5.42395       -1.12264       -0.66446
H          7.23372       -2.66030        0.26313
H          6.95338       -2.54800       -1.49013
H          7.47245       -5.14447        0.06017
H          7.34444       -4.64506       -2.97135
H          6.19957       -5.61582       -2.04010
H          7.88983       -6.15420       -2.18721
H          9.34498       -3.46055       -1.69449
H          9.74465       -5.02428       -0.94896
H          9.42931       -3.60273        0.07612
