32

C          1.07260        0.11336        0.45668
O          2.48061        0.07298        0.37972
C          2.93658       -0.87387       -0.58828
C          4.45884       -0.84756       -0.64587
O          4.84362       -1.78911       -1.61097
C          6.27356       -1.82794       -1.83489
C          6.62619       -2.82872       -2.93822
N          7.98755       -2.65021       -3.29618
C          8.65665       -3.81205       -3.75995
C          8.66177       -4.01869       -5.31531
C          7.25991       -4.03796       -5.92638
C         10.12925       -3.79965       -3.28436
H          0.80526        0.86265        1.21418
H          0.64795       -0.86588        0.75551
H          0.61622        0.40240       -0.51106
H          2.52624       -0.63104       -1.58793
H          2.59122       -1.89229       -0.32322
H          4.87820       -1.08493        0.35600
H          4.80626        0.17442       -0.90904
H          6.79061       -2.09626       -0.89312
H          6.62678       -0.82502       -2.14295
H          5.83914       -2.67394       -3.74072
H          6.40519       -3.86628       -2.55046
H          8.18666       -4.75786       -3.34578
H          9.19700       -4.95739       -5.57351
H          9.23804       -3.18448       -5.75698
H          6.64924       -4.84469       -5.48615
H          7.28287       -4.19065       -7.01807
H          6.75067       -3.08709       -5.71835
H         10.60085       -2.86025       -3.61607
H         10.72014       -4.64760       -3.67556
H         10.16242       -3.81418       -2.18571
