32

O          3.34229        1.98350        0.62488
C          3.32424        0.67099        1.01550
O          2.80866        0.37259        2.07190
C          3.94878       -0.32968        0.05489
C          4.82614        0.23876       -1.06984
B          5.50872       -0.87973       -2.02033
S          4.26466       -1.79010       -3.19176
O          4.88198       -2.72214       -4.12866
O          3.14377       -2.25368       -2.36628
C          3.46159       -0.40624       -4.30673
C          2.80600       -0.94280       -5.61648
C          1.87068        0.07693       -6.36535
F          0.73934        0.31435       -5.67468
F          2.49891        1.25013       -6.57923
F          1.52075       -0.43791       -7.56789
F          3.77663       -1.30058       -6.49283
F          2.03978       -2.03073       -5.32698
F          2.50660        0.24141       -3.57272
F          4.42469        0.49603       -4.63128
S          7.03280       -0.11996       -2.96607
O          7.41837       -0.80151       -4.19871
O          7.01070        1.34635       -2.93509
C          8.46937       -0.54579       -1.76090
F          8.21607       -0.10128       -0.50276
F          8.69991       -1.87458       -1.69158
F          9.59914        0.05483       -2.19463
H          3.81715        2.03308       -0.22782
H          3.11939       -0.92051       -0.36512
H          4.51849       -1.03739        0.67467
H          5.64858        0.82883       -0.63321
H          4.25095        0.94331       -1.69884
H          5.95754       -1.85417       -1.45362
