26

F          4.50348        1.73346       -0.97719
Ga         3.83770        0.12319       -1.39590
S          1.41033        0.46061       -1.42889
O          0.68580       -0.36995       -0.46019
O          1.04311        1.87461       -1.57883
C          0.90322       -0.31278       -3.12345
F          1.29685       -1.60691       -3.19428
F         -0.43509       -0.26577       -3.28894
F          1.48198        0.35207       -4.15441
S          4.01466       -1.15834        0.68418
O          3.24915       -0.64244        1.82134
O          3.95388       -2.59291        0.37141
C          5.94411       -0.93873        1.15004
C          6.32817        0.02409        2.31817
C          6.20851       -0.61546        3.75651
C          6.09474        0.42248        4.93235
F          7.08161        1.34192        4.86744
F          4.91149        1.05153        4.92913
F          6.21740       -0.23788        6.10866
F          5.12988       -1.42769        3.83639
F          7.32717       -1.35947        3.99627
F          7.63708        0.41066        2.16850
F          5.56760        1.14515        2.24553
F          6.47821       -2.16357        1.39820
F          6.52224       -0.45127        0.01026
H          4.37760       -0.61648       -2.65138
