9

O          1.05578       -0.66683       -0.00803
Ga         2.86279       -0.51690       -0.44825
C          3.92547       -1.33523        1.15411
F          3.43267       -0.96998        2.40369
F          3.90632       -2.72869        1.17994
F          5.27352       -1.01648        1.21360
F          3.33256        1.26630       -0.37738
H          0.93702       -0.34201        0.89649
H          3.18143       -1.14106       -1.85760
