46

C          6.13068       -1.88467        3.65226
C          5.76540       -1.23954        2.31290
C          6.64533       -1.70436        1.14876
C          6.28242       -1.06479       -0.19213
C          7.17368       -1.50973       -1.35730
N          6.77112       -0.86055       -2.57687
C          7.47857       -1.12126       -3.66877
C          8.62686       -2.00495       -3.76794
C          9.30552       -2.19740       -4.95665
C          8.92046       -1.54219       -6.15018
C          7.79423       -0.67375       -6.08770
C          7.11077       -0.47512       -4.91151
C          9.65367       -1.76889       -7.40314
C          9.44372       -3.13783       -8.15993
C          8.00103       -3.55302       -8.63827
C          7.22717       -2.72676       -9.74699
C          7.90682       -2.52016      -11.15282
C          6.90502       -2.08998      -12.29298
F          6.14514       -1.04498      -11.91630
F          7.62347       -1.72222      -13.37808
F          6.09869       -3.10416      -12.65827
F          8.84429       -1.54828      -11.07005
F          8.49400       -3.67212      -11.57435
F          6.06771       -3.42578       -9.97030
F          6.88873       -1.51310       -9.25772
F          8.10846       -4.83003       -9.12767
F          7.16548       -3.59140       -7.57336
F         10.24742       -3.20836       -9.27945
F          9.83864       -4.14714       -7.32701
F          9.39597       -0.79204       -8.35606
F         11.05094       -1.76743       -7.21044
H          5.48535       -1.52911        4.46939
H          7.17264       -1.66064        3.92832
H          6.03454       -2.98028        3.60346
H          5.83503       -0.14184        2.40116
H          4.70947       -1.45497        2.07575
H          6.57968       -2.80438        1.06325
H          7.70234       -1.48560        1.38705
H          6.34013        0.03445       -0.11454
H          5.23438       -1.29477       -0.44976
H          7.12468       -2.62441       -1.42905
H          8.23550       -1.28876       -1.08552
H          8.97633       -2.52839       -2.87714
H         10.17232       -2.86285       -4.97234
H          7.47594       -0.14573       -6.98811
H          6.25451        0.20214       -4.87730
