44

C          3.31919       -3.40594       -0.85300
C          4.22256       -2.18666       -0.65037
C          4.69590       -1.54874       -1.96061
C          5.56063       -0.29944       -1.76483
C          6.05180        0.33551       -3.07867
C          6.85855        1.61878       -2.87532
Nb         7.77180        2.62856       -4.65503
C          5.91014        3.95759       -4.51179
C          4.62852        3.74975       -5.37197
F          4.09399        2.51939       -5.12229
F          3.63952        4.66048       -5.09407
F          4.84621        3.83745       -6.70295
F          5.37686        4.28434       -3.26120
F          6.47162        5.16694       -4.99761
C          9.75594        3.52491       -4.54627
C         10.85805        2.64900       -4.64266
C         12.17792        3.12319       -4.67204
C         12.45138        4.49494       -4.62500
C         11.36083        5.38087       -4.54845
C         10.05098        4.90567       -4.50037
C         13.86883        5.01439       -4.64126
H          3.00866       -3.84982        0.10483
H          3.83198       -4.18831       -1.43294
H          2.40737       -3.13409       -1.40614
H          5.10297       -2.47607       -0.05125
H          3.68838       -1.42877       -0.05246
H          3.81611       -1.28564       -2.57437
H          5.25889       -2.29724       -2.54689
H          6.43581       -0.55288       -1.13945
H          4.98799        0.45242       -1.19307
H          5.16731        0.54690       -3.70646
H          6.65227       -0.40127       -3.63848
H          7.81047        1.39476       -2.34549
H          6.29025        2.31609       -2.24517
H          7.75336        3.71266       -3.28420
H          8.14404        0.84180       -4.74956
H          7.05166        2.82412       -6.29168
H         10.69066        1.56764       -4.68970
H         13.01003        2.41434       -4.73374
H         11.54847        6.45923       -4.51252
H          9.22945        5.62190       -4.41144
H         14.58996        4.19937       -4.79146
H         14.12539        5.51770       -3.69525
H         14.02027        5.75137       -5.44527
