15

O          1.94657       -0.41970       -0.80268
Ta         3.77853       -0.33364       -0.24988
C          4.47523       -1.45067       -2.12338
C          5.92476       -1.68469       -2.33337
O          6.48339       -2.76057       -2.48974
O          6.69054       -0.53548       -2.33667
S          3.80057        1.71737        1.08305
H          1.35129        0.21996       -0.38374
H          4.88701        0.79872       -1.14055
H          4.39162       -1.91218        0.26701
H          3.76158       -0.63574        1.50738
H          4.10594       -0.75651       -2.90088
H          3.94319       -2.40876       -2.19534
H          6.08866        0.17047       -1.98012
H          3.96494        2.70472        0.15584
