27

C          6.36709       -0.44388       -2.51817
S          6.09826       -1.76490       -1.29342
C          5.59346       -0.71119        0.12230
C          4.86195       -1.51614        1.18556
Nb         5.68311       -3.16949        2.37291
C          3.97782       -3.93110        3.61442
C          3.43565       -2.82988        4.53503
C          2.28877       -3.20363        5.48110
O          1.67178       -2.41707        6.17162
O          1.99439       -4.53291        5.51344
S          7.23073       -2.14852        3.99682
H          6.64686       -0.93313       -3.46106
H          7.18463        0.22937       -2.21972
H          5.45472        0.14907       -2.68597
H          4.97275        0.09759       -0.30787
H          6.49739       -0.24474        0.54620
H          3.92391       -1.93547        0.76835
H          4.56473       -0.81863        2.00489
H          5.48899       -4.87260        1.96812
H          7.15612       -4.07236        2.09066
H          6.04090       -3.56760        0.70064
H          4.42090       -4.77088        4.18096
H          3.20303       -4.33903        2.94189
H          3.07397       -1.95421        3.97051
H          4.23460       -2.43760        5.18868
H          2.60779       -4.93907        4.85359
H          8.34149       -2.90559        3.88735
