18

N          1.08737       -0.07433       -0.06204
C          0.49534       -0.93296        0.89156
C         -1.03549       -0.87028        0.83042
C          2.49769       -0.13622        0.00845
C          3.06464        0.81806       -1.04111
C          4.55745        0.94521       -1.17045
O          5.43737        0.38695       -0.54987
O          4.94771        1.85461       -2.16597
H          0.80355       -0.70459        1.96300
H          0.79772       -2.02364        0.77323
H         -1.37482        0.16161        1.01432
H         -1.50747       -1.53792        1.57146
H         -1.38134       -1.15503       -0.17608
H          2.93896       -1.16305       -0.18061
H          2.93573        0.15264        1.01326
H          2.62927        1.81805       -0.84220
H          2.63686        0.52041       -2.01953
H          4.12953        2.20567       -2.55873
