40

C          1.34574        1.49820        4.59811
O          2.64017        1.40694        5.14870
C          3.24533        2.68794        5.31264
C          4.68544        2.54479        5.76941
O          5.49470        2.13686        4.69663
C          6.92712        2.11340        5.04480
C          7.78636        1.77216        3.86955
Ta        10.10307        1.93006        3.99920
C         10.06451        0.90216        2.07430
C          9.08191        1.01662        0.90960
C          9.01816        2.40884        0.26715
C          7.91298        2.51424       -0.78248
N          7.88605        3.85317       -1.40662
N          9.61641        3.85583        4.32407
H          0.95883        0.47525        4.49700
H          1.35613        1.97747        3.59900
H          0.65819        2.07742        5.24927
H          2.67224        3.27565        6.06130
H          3.22419        3.24091        4.35265
H          4.73173        1.82892        6.61897
H          5.01577        3.53301        6.16402
H          7.07172        1.38784        5.86726
H          7.16036        3.11998        5.45608
H          7.48279        2.39904        3.00884
H          7.60705        0.71746        3.58737
H         11.52276        1.12566        4.78588
H          9.62547        1.01825        5.47274
H         11.64160        2.87772        3.62538
H         10.05761       -0.13894        2.47283
H         11.11073        1.08385        1.74441
H          8.07374        0.75873        1.27668
H          9.31087        0.28271        0.11083
H          9.98572        2.66573       -0.19524
H          8.84253        3.15957        1.05779
H          6.95097        2.23854       -0.30575
H          8.09122        1.77788       -1.58543
H          7.77918        4.55705       -0.67219
H          7.06034        3.94278       -2.00217
H          8.66379        4.19212        4.45678
H         10.28984        4.60854        4.41353
