51

C         11.34185        2.21181       -0.76470
C         10.69600        0.92987       -0.23212
C          9.45692        1.18427        0.63236
C          8.79947       -0.09506        1.17088
C          7.56557        0.16076        2.04382
Ga         6.64317       -1.46042        2.79911
S          5.92780       -2.60324        0.69768
O          4.87021       -1.90162       -0.03392
O          7.00769       -3.18674       -0.10346
F          5.11313       -3.99630        1.29788
C          7.84080       -2.83080        3.65803
C          9.07165       -2.45122        4.22833
C          9.91783       -3.37652        4.84623
C          9.57226       -4.74054        4.92455
C          8.33988       -5.12498        4.36052
C          7.49823       -4.19329        3.74574
Si        10.73487       -5.97307        5.72086
C         11.03084       -5.45157        7.53609
C         11.99530       -6.35433        8.31275
C         12.24747       -5.90998        9.73762
F         11.10778       -5.86322       10.48404
F         13.10157       -6.76270       10.38626
F         12.81312       -4.67120        9.80693
C         10.00469       -7.71863        5.69762
C         12.40507       -5.98393        4.82591
H         12.22916        1.99938       -1.37960
H         11.65724        2.86986        0.06001
H         10.63461        2.78256       -1.38589
H         11.43619        0.36052        0.35589
H         10.41745        0.27780       -1.07675
H          8.71252        1.75147        0.04488
H          9.73234        1.83756        1.48108
H          9.55340       -0.66754        1.73930
H          8.52646       -0.74165        0.32013
H          6.80985        0.72697        1.47470
H          7.83746        0.80266        2.90251
H          5.24636       -1.24264        3.50407
H          9.38986       -1.40446        4.18569
H         10.86788       -3.02596        5.26555
H          8.02918       -6.17371        4.39344
H          6.55976       -4.54126        3.30657
H         10.05292       -5.41964        8.04098
H         11.40745       -4.41642        7.53076
H         12.98287       -6.40062        7.82943
H         11.61823       -7.38628        8.37605
H          9.04972       -7.76213        6.24057
H         10.68947       -8.44512        6.15960
H          9.81792       -8.05176        4.66694
H         12.86350       -4.98467        4.83770
H         12.26629       -6.26819        3.77335
H         13.11873       -6.69120        5.27450
