26

C          1.21708       -0.80645        0.80456
S          2.85960       -0.08749        0.50530
C          3.29619       -0.99664       -1.04568
C          4.71295       -0.62579       -1.50217
C          4.95339       -1.15858       -2.90454
C          4.85573       -0.11376       -4.00440
C          3.41463        0.33850       -4.37270
C          2.91776        1.53911       -3.55080
C          3.31228        0.66032       -5.87174
Cl         6.74975       -1.72508       -2.95759
H          0.80650       -0.33339        1.70662
H          1.27511       -1.89243        0.97118
H          0.53553       -0.60990       -0.03624
H          2.54650       -0.74376       -1.80936
H          3.23659       -2.07956       -0.86288
H          5.42260       -1.08040       -0.79611
H          4.85328        0.48605       -1.39610
H          5.31319       -0.54486       -4.90840
H          5.44834        0.82072       -3.78569
H          2.75612       -0.52492       -4.16899
H          3.52918        2.43087       -3.76342
H          2.97204        1.36432       -2.46828
H          1.87120        1.78391       -3.79882
H          4.01324        1.46559       -6.14984
H          2.29835        0.99256       -6.15151
H          3.56138       -0.22233       -6.47994
