26

N          1.41351       -0.02997       -0.18746
Nb         3.33823        0.10963        0.47463
C          4.47489       -1.76488        0.85358
C          3.69425       -3.06128        1.10119
C          3.18812       -3.66084       -0.21793
C          4.51317       -4.10828        1.88161
C          4.18196        1.79755       -0.72543
N          5.28803        0.89542       -0.38278
H          0.62279        0.17572        0.41866
H          1.11945       -0.09691       -1.15669
H          2.40680       -0.11895        2.08035
H          3.49258       -0.50428       -1.29449
H          3.96629        1.35350        1.70582
H          4.87824       -1.38203        1.82456
H          5.34624       -1.96388        0.20387
H          2.81032       -2.80913        1.71480
H          4.03850       -3.93216       -0.86742
H          2.57990       -2.92588       -0.76126
H          2.59095       -4.57261       -0.04765
H          5.41805       -4.38832        1.31523
H          3.93542       -5.03102        2.07119
H          4.84129       -3.70706        2.85250
H          4.30247        2.79009       -0.27768
H          4.01249        1.85392       -1.80479
H          6.00358        1.28068        0.22550
H          5.67634        0.36521       -1.15586
