47

O          1.87905        1.46121       -1.23313
B          3.34238        1.44981       -0.91371
C          3.62272        1.51766        0.70083
C          2.79082        0.84264        1.61531
C          3.02357        0.86337        2.99354
C          4.11103        1.56588        3.53433
C          4.95114        2.24611        2.63943
C          4.70423        2.22245        1.26320
C          4.35553        1.60853        5.02461
C          3.97996        0.08002       -1.51561
C          5.34617       -0.24683       -1.37906
C          5.88421       -1.42336       -1.89588
C          5.08095       -2.35703       -2.59054
C          3.71651       -2.03784       -2.73602
C          3.18707       -0.85546       -2.21010
Si         5.84885       -3.91330       -3.26670
C          7.40195       -3.45970       -4.28487
C          7.12575       -2.39576       -5.35279
C          8.32916       -2.03345       -6.19189
F          9.36008       -1.53161       -5.45302
F          8.83498       -3.10596       -6.87879
F          8.02822       -1.08775       -7.13242
C          6.43264       -5.07828       -1.89219
C          4.66053       -4.85882       -4.39947
H          1.51274        2.29736       -0.91889
H          3.95046        2.40972       -1.43852
H          1.93611        0.28544        1.22076
H          2.35416        0.31816        3.66815
H          5.80654        2.80836        3.03022
H          5.36846        2.77803        0.59331
H          3.74185        0.86167        5.54827
H          4.10952        2.59476        5.45294
H          5.41027        1.40764        5.26968
H          6.00545        0.44487       -0.84584
H          6.95331       -1.62244       -1.75576
H          3.05038       -2.72513       -3.26819
H          2.12547       -0.62939       -2.33542
H          7.80401       -4.37643       -4.74622
H          8.17324       -3.09434       -3.58875
H          6.76195       -1.46585       -4.88999
H          6.34817       -2.72383       -6.05927
H          7.10630       -4.54864       -1.20371
H          6.96739       -5.95139       -2.29558
H          5.57560       -5.43819       -1.30557
H          4.31103       -4.23732       -5.23562
H          3.77273       -5.19503       -3.84545
H          5.15427       -5.74847       -4.81737
