59

O          4.01380        0.73879       -1.51343
In         4.48853        1.57447        0.37212
C          5.00282       -0.29947        1.50622
C          4.92635       -1.55234        0.86092
C          5.24098       -2.74783        1.51741
C          5.65541       -2.75840        2.86769
C          5.71189       -1.51358        3.52639
C          5.38877       -0.32485        2.85986
Si         6.28286       -4.32931        3.67341
C          7.89938       -4.83530        2.77860
C          8.83795       -3.63775        2.58481
C         10.19450       -3.91434        1.96189
C         10.27652       -4.48004        0.49858
C          9.48653       -3.75049       -0.66122
C          9.79418       -2.22876       -0.92371
C          9.25370       -1.70771       -2.31564
C          9.11957       -0.14149       -2.40984
F         10.27269        0.45093       -2.02596
F          8.88554        0.18712       -3.69921
F          8.11591        0.31142       -1.66014
F         10.11820       -2.10337       -3.28956
F          8.03399       -2.23759       -2.57449
F          9.22570       -1.49589        0.06653
F         11.13852       -2.03098       -0.90122
F          9.78087       -4.43792       -1.80462
F          8.15927       -3.88427       -0.41076
F         11.58796       -4.54625        0.13505
F          9.79048       -5.75840        0.50393
F         10.94408       -2.75494        1.96467
F         10.89673       -4.82671        2.72624
C          6.67740       -4.05546        5.50580
C          5.08231       -5.78452        3.52152
C          2.51381        2.32797        1.15807
C          1.40164        1.33926        0.87513
S         -0.23165        1.95784        1.50704
C         -1.33606        0.58418        1.05653
H          4.53012        1.18757       -2.19773
H          5.79413        2.76696        0.21596
H          4.61945       -1.58318       -0.19007
H          5.17201       -3.69097        0.96157
H          6.02111       -1.46663        4.57594
H          5.45343        0.61212        3.42433
H          7.61923       -5.26673        1.80638
H          8.40217       -5.63429        3.34632
H          9.08935       -3.17836        3.55486
H          8.34227       -2.85199        1.99845
H          7.43190       -3.26995        5.65474
H          7.06407       -4.98099        5.95755
H          5.77821       -3.75808        6.06399
H          4.80459       -5.96617        2.47371
H          4.15737       -5.58786        4.08184
H          5.53034       -6.70850        3.91749
H          2.30448        3.29806        0.68163
H          2.61460        2.50421        2.24083
H          1.58350        0.37059        1.36682
H          1.28998        1.15714       -0.20413
H         -2.34385        0.84147        1.41011
H         -1.02426       -0.35430        1.53774
H         -1.37170        0.43683       -0.03255
