37

C          1.18348        2.52163       -1.12192
C          1.83695        1.22569       -0.62568
C          2.42356        0.41131       -1.78627
In         1.05392       -0.50988       -3.31440
C          0.39924       -2.46852       -2.40494
C          0.42131       -2.67110       -1.01149
C          0.10420       -3.90268       -0.42090
C         -0.24932       -5.00926       -1.20389
C         -0.27036       -4.83440       -2.59643
C          0.04310       -3.59718       -3.17178
C         -0.59750       -6.33978       -0.57757
C          2.46092       -1.17263       -4.99071
O          3.86368       -0.88322       -4.56009
C          4.84057       -1.31642       -5.33134
F          4.82193       -0.81993       -6.62082
F          6.03642       -0.94367       -4.79367
F          4.89203       -2.68661       -5.48301
C          2.89608        1.54528        0.44722
H          0.39984        2.30768       -1.86255
H          1.93634        3.16134       -1.61252
H          0.73832        3.10014       -0.29606
H          1.04871        0.62676       -0.13054
H          2.98744       -0.44910       -1.38667
H          3.16357        1.02767       -2.32708
H         -0.28728        0.45093       -3.97481
H          0.70706       -1.84630       -0.34996
H          0.13775       -4.01034        0.66923
H         -0.53130       -5.68336       -3.23864
H          0.01678       -3.52278       -4.26465
H         -0.45070       -6.31621        0.51179
H          0.02293       -7.15527       -0.98180
H         -1.64836       -6.61488       -0.76485
H          2.31140       -0.65636       -5.95064
H          2.39627       -2.25842       -5.16109
H          3.70951        2.15022        0.01321
H          3.34767        0.62207        0.84056
H          2.47279        2.10783        1.29798
