26

Ga         1.36069       -0.22015       -0.32144
C          0.25465        1.23960       -1.23784
C          1.10617        2.20527       -2.08192
C          1.85754        1.56149       -3.25705
C         -0.90978        0.64559       -2.03985
C          0.14612       -1.38422        0.95351
C         -0.38188       -0.65045        2.10864
O         -1.54269       -0.34347        2.34075
O          0.58766       -0.23178        3.02501
C          2.90505        0.52433        0.79545
H          1.92265       -1.31436       -1.37238
H         -0.17848        1.83286       -0.41231
H          1.84272        2.70101       -1.42637
H          0.46656        3.01955       -2.48872
H          2.52311        0.75850       -2.90844
H          2.46388        2.30387       -3.80029
H          1.16246        1.11086       -3.98179
H         -0.56363       -0.06058       -2.81268
H         -1.50785        1.42451       -2.55809
H         -1.59716        0.08864       -1.38586
H          0.85911       -2.16338        1.25922
H         -0.66795       -1.82775        0.37044
H          1.45215       -0.33822        2.58479
H          2.60807        1.31940        1.49798
H          3.66036        0.95779        0.12020
H          3.42373       -0.26388        1.36868
