16

O          1.38221       -0.55014        0.06292
N          2.84111       -0.38632        0.23429
C          3.05445        0.78498        0.79358
C          2.34137        2.12428        0.38254
C          0.80067        2.42342        0.60226
C          0.12890        2.17096        1.99906
F          0.75922        2.83453        2.98375
F         -1.14604        2.68074        1.93108
F          0.01485        0.88217        2.31256
F          0.64003        3.77765        0.37391
F          0.03667        1.79531       -0.32792
F          2.99433        3.17725        0.97171
F          2.50979        2.29548       -0.98502
F          2.75383        0.91734        2.38581
F          4.41217        1.05485        0.79987
H          1.33624       -0.77791       -0.87851
