29

C          0.71687        0.22437        0.21057
C          2.23644        0.42020        0.24106
C          2.84794        0.71111       -1.13580
C          4.36799        0.94087       -1.11323
C          4.99911        1.22317       -2.46742
As         6.92641        1.97843       -2.31010
C          7.92027        0.30742       -3.02767
C          7.85780       -0.87109       -2.06980
O          8.70170        2.85045       -2.09996
H          0.30665        0.01176        1.20982
H          0.43684       -0.61287       -0.44827
H          0.20875        1.12298       -0.17301
H          2.71520       -0.47892        0.66667
H          2.48781        1.24604        0.92895
H          2.35692        1.60148       -1.57018
H          2.61268       -0.12427       -1.82097
H          4.85803        0.06571       -0.65106
H          4.58692        1.79093       -0.43713
H          4.45210        2.01491       -3.00517
H          5.01471        0.32273       -3.10495
H          7.06880        1.41017       -0.80197
H          6.26527        3.34868       -1.71825
H          6.83934        2.55964       -3.80537
H          8.94751        0.65902       -3.19124
H          7.45322        0.09377       -4.00182
H          8.05864       -0.53113       -1.03788
H          8.58526       -1.66904       -2.30289
H          6.85765       -1.33531       -2.05829
H          8.46606        3.67760       -1.65021
