36

O          1.30245        0.50422       -0.03698
C          2.61149        0.37991        0.37619
O          3.09712        1.25646        1.05395
C          3.28362       -0.90331       -0.05682
C          4.81077       -0.88354        0.05447
C          5.44701       -2.29892       -0.08386
C          5.16209       -3.20296        1.13481
C          4.60636       -2.60545        2.28764
C          4.30690       -3.30560        3.45449
C          4.58852       -4.66739        3.52934
C          5.18610       -5.27918        2.43360
C          5.47091       -4.58984        1.23981
C          6.14092       -5.52354        0.23277
O          7.09256       -6.20368        0.59570
O          5.58852       -5.66612       -0.95956
C          4.84973       -2.79214       -1.49266
O          5.16606       -2.09847       -2.47154
O          4.03393       -3.77268       -1.45424
C          6.94447       -2.01805       -0.23838
O          7.65130       -3.25550       -0.53903
C          8.98091       -3.21070       -0.47201
F          9.53659       -2.23901       -1.27485
F          9.45803       -2.94654        0.79039
F          9.48307       -4.39271       -0.85860
H          1.08446       -0.26781       -0.58904
H          2.99370       -1.14204       -1.09285
H          2.85577       -1.71304        0.56080
H          5.11627       -0.37809        0.98116
H          5.20140       -0.28288       -0.77744
H          4.39737       -1.53818        2.29067
H          3.86415       -2.77571        4.30015
H          4.36616       -5.24306        4.42966
H          5.46802       -6.33122        2.47911
H          4.85235       -4.94265       -1.11881
H          7.36056       -1.59056        0.68726
H          7.08446       -1.33524       -1.08687
