34

C          8.30153        0.86956        4.33680
C          7.66688        1.01517        2.94220
C          6.15037        1.27042        2.96332
Nb         5.28161        1.37487        0.90691
C          5.89757       -0.59896        0.06407
C          5.32804       -1.11796       -1.22024
O          6.03172       -2.31867       -1.68585
C          5.55323       -2.76305       -2.93008
C          6.41773       -3.89558       -3.45049
O          6.13475       -5.10604       -2.75154
C          7.00211       -6.15067       -3.13013
O          6.37906        2.72022       -0.04218
H          9.38908        0.68695        4.28722
H          7.84308        0.03167        4.88536
H          8.13768        1.77905        4.93622
H          7.89383        0.10059        2.36479
H          8.17763        1.83531        2.40653
H          5.92748        2.19631        3.52362
H          5.63142        0.46052        3.51055
H          3.78068        0.57512        0.36502
H          3.95679        1.62633        2.06765
H          4.00816        2.47888        0.36065
H          5.69933       -1.30920        0.88973
H          6.99929       -0.49155       -0.02708
H          5.40698       -0.36634       -2.03305
H          4.25676       -1.35901       -1.09824
H          5.58107       -1.94153       -3.68099
H          4.49744       -3.10534       -2.86701
H          7.48425       -3.62537       -3.32145
H          6.22734       -4.04071       -4.53512
H          6.72926       -7.03554       -2.53925
H          8.06198       -5.89881       -2.92786
H          6.90767       -6.39796       -4.20789
H          5.92209        3.47682       -0.43083
