36

S          4.49174        2.72122        1.15142
C          6.20757        2.33829        1.72186
C          6.40505        0.81957        1.79998
C          5.42906        0.06970        2.70891
Al         5.79533       -1.93377        2.84405
C          4.34469       -2.75642        4.03036
C          2.91737       -2.55229        3.51383
C          1.81028       -3.20803        4.35514
C          0.40594       -2.96976        3.80179
N         -0.60144       -3.64264        4.61716
C         -1.94425       -3.61106        4.30337
N         -2.53559       -2.92337        3.38358
N         -2.71502       -4.45999        5.12451
N          5.83299       -2.60296        1.08863
H          4.75779        3.98365        0.73673
H          6.34544        2.79551        2.71347
H          6.90753        2.80630        1.01225
H          7.44235        0.65458        2.14628
H          6.36077        0.40060        0.78077
H          4.39630        0.21397        2.33406
H          5.44337        0.51864        3.72139
H          7.27635       -2.23066        3.51517
H          4.42700       -2.34275        5.05499
H          4.54532       -3.84154        4.12902
H          2.83984       -2.93929        2.47981
H          2.69918       -1.47073        3.44085
H          1.86330       -2.83054        5.39059
H          2.00101       -4.29635        4.40775
H          0.35801       -3.31560        2.75064
H          0.18748       -1.88887        3.79486
H         -0.28088       -4.49439        5.06912
H         -1.85131       -2.45180        2.78633
H         -2.47192       -4.39445        6.11088
H         -3.70352       -4.27198        4.97538
H          4.99819       -2.54376        0.50559
H          6.23886       -3.52415        0.92894
