21

N          1.00155        0.84419       -0.43190
Sb         2.36026       -0.57008        0.23321
S          4.27212       -2.44253        1.19070
O          3.95911       -3.80946        0.72342
O          5.67313       -1.98095        1.13735
C          3.95913       -2.57025        3.10930
F          4.01959       -1.33513        3.67903
F          2.72876       -3.07846        3.38037
F          4.87454       -3.35498        3.71877
S          3.63317        0.24428       -2.22917
O          3.10430       -0.53068       -3.37726
O          3.46117        1.72470       -2.27431
C          5.54646        0.05389       -2.41714
F          6.18759        0.72103       -1.42783
F          5.90034       -1.24777       -2.34247
F          5.98297        0.54336       -3.60332
H          0.35969        0.39291       -1.09051
H          1.54099        1.51096       -1.00129
H          3.47300        0.56964        0.88496
H          1.46587       -1.00536        1.64397
H          2.01583       -1.93311       -0.77617
