23

C          0.60565       -0.87029        1.10931
Sb         2.11525        0.11105       -0.19030
C          3.87268        0.97186       -1.59902
C          3.88774        2.45492       -1.98605
F          2.74791        2.79418       -2.64021
F          3.98096        3.23974       -0.87978
F          4.92929        2.81908       -2.80553
F          5.11202        0.72087       -1.01058
F          3.87616        0.26379       -2.79839
C          3.27329        0.90623        1.63313
O          3.88375       -0.20207        2.38655
C          4.53937        0.10680        3.49351
F          3.76211        0.70758        4.46362
F          5.03873       -1.03034        4.04878
F          5.60167        0.95863        3.31028
H          0.27738       -1.79510        0.61669
H         -0.25403       -0.20494        1.26510
H          1.06787       -1.11561        2.07453
H          3.15068       -1.34336       -0.20092
H          1.28863       -0.34214       -1.70191
H          1.32910        1.72677       -0.15995
H          2.54222        1.41320        2.28113
H          4.06531        1.60031        1.32282
