16

C          0.88391        0.03224       -0.02872
C          2.41535       -0.00400       -0.06883
C          2.97820       -0.98661       -1.10155
C          4.51271       -1.03697       -1.15451
N          4.89669       -1.96868       -2.13446
O          6.43809       -1.91415       -2.06516
H          0.50274        0.74551        0.72044
H          0.46949       -0.95950        0.21535
H          0.46784        0.32337       -1.00697
H          2.80205       -0.26833        0.93071
H          2.80052        1.00778       -0.28421
H          2.60483       -0.72549       -2.10837
H          2.60519       -2.00522       -0.89057
H          4.87974       -1.26377       -0.09432
H          4.88021        0.03382       -1.32589
H          6.62374       -2.56279       -2.75833
