26

C          5.17612        0.85933       -2.82483
S          4.23794        0.27783       -1.38575
C          5.30959       -1.13271       -0.90128
C          4.68405       -1.79278        0.33138
C          5.36190       -3.10387        0.85606
C          5.00043       -3.16594        2.37127
C          5.46788       -4.40357        3.27541
F          5.91668       -5.44791        2.56172
F          6.41003       -4.05050        4.16438
F          4.40518       -4.86013        4.00632
F          5.48408       -2.04696        2.99698
F          3.62100       -3.07963        2.53466
C          4.81596       -4.31724        0.06022
F          4.47549       -3.97640       -1.21651
F          5.68535       -5.34985       -0.05096
F          3.67041       -4.85713        0.60611
C          6.99963       -3.09249        0.65911
O          7.34946       -2.95876       -0.53031
O          7.64638       -3.22787        1.71370
H          4.63642        1.71933       -3.24162
H          5.24610        0.07547       -3.59206
H          6.18862        1.17625       -2.53813
H          6.31485       -0.75531       -0.68228
H          5.38794       -1.82382       -1.74608
H          3.62170       -1.99849        0.12625
H          4.70225       -1.05907        1.14725
