12

Ga         0.86094       -0.38840        0.10583
C          0.29787       -0.83466       -1.81391
C          0.91320       -2.09406       -2.31161
O          1.52136       -2.24091       -3.35940
O          0.77039       -3.18813       -1.47868
Cl        -0.66469        1.02405        0.99845
S          2.89874        0.63712        0.36311
H          0.74287       -1.79786        0.89861
H          0.47383       -0.01905       -2.52095
H         -0.78438       -0.97890       -1.67060
H          0.52607       -2.85458       -0.58238
H          3.52730       -0.31281       -0.37035
