39

N          4.10043        1.08329       -2.68772
C          3.42137        2.00983       -1.75666
C          3.24090        1.37672       -0.37874
C          4.54221        1.17607        0.42438
C          5.31192        2.41847        0.84934
S          4.66846        3.37810        2.02086
O          3.48467        2.76688        2.65168
O          5.66151        4.08778        2.84386
C          3.79240        4.94897        1.25456
C          3.16180        6.04836        2.16649
C          2.07865        5.62115        3.21694
F          1.10987        4.86596        2.66588
F          2.60952        4.97710        4.26168
F          1.48219        6.75262        3.70197
F          4.13593        6.70605        2.85101
F          2.53771        6.98542        1.35635
F          4.70938        5.62915        0.48020
F          2.79145        4.53451        0.40090
C          6.78445        2.52235        0.52256
C          7.16946        2.65362       -0.97422
C          6.86048        4.04644       -1.53085
C          8.65221        2.31197       -1.17497
H          4.25669        1.54020       -3.58725
H          3.49327        0.28177       -2.87320
H          2.43599        2.35129       -2.13239
H          4.05146        2.90573       -1.65374
H          2.74134        0.39543       -0.50248
H          2.55412        1.99850        0.21210
H          5.22997        0.56926       -0.18723
H          4.28449        0.55967        1.30473
H          7.29599        1.61069        0.90187
H          7.22687        3.36136        1.08354
H          6.57294        1.91709       -1.54150
H          7.48289        4.80987       -1.03537
H          5.81298        4.32071       -1.35335
H          7.05845        4.10011       -2.61372
H          9.29381        3.01021       -0.61177
H          8.94361        2.37431       -2.23552
H          8.87900        1.29485       -0.81939
