39

N          1.07097        0.25225        0.07513
C          2.45994       -0.24775       -0.00864
C          3.16847       -0.16586        1.34126
C          4.60846       -0.70085        1.30007
C          5.40736       -0.55442        2.60296
Al         7.25994       -1.35315        2.51984
C          8.33905       -0.33460        1.00718
C          8.41756        1.21054        0.89258
C          8.93611        1.97499        2.15351
F         10.13777        1.52631        2.56524
F          9.07022        3.29996        1.86891
F          8.06712        1.87345        3.17992
F          9.22495        1.61527       -0.15198
F          7.16382        1.70998        0.63897
F          9.68141       -0.76193        0.98082
F          7.82564       -0.71067       -0.25273
C          8.28256       -1.29421        4.26186
C          9.69805       -1.88579        4.20148
C         10.36798       -2.07106        5.56402
N         11.73509       -2.61973        5.42401
H          0.65755        0.29544       -0.85839
H          1.08516        1.21524        0.41955
H          3.07186        0.28931       -0.76154
H          2.41484       -1.30037       -0.33574
H          2.57894       -0.71559        2.09478
H          3.18823        0.88907        1.67511
H          5.14317       -0.18979        0.48090
H          4.57832       -1.76532        1.00390
H          4.85966       -1.04855        3.42897
H          5.46453        0.51328        2.88499
H          7.24711       -2.88025        1.92680
H          7.67239       -1.88388        4.97529
H          8.32098       -0.27447        4.68339
H         10.35237       -1.25770        3.57561
H          9.66680       -2.87123        3.69743
H          9.70794       -2.70165        6.19580
H         10.44688       -1.09308        6.06918
H         11.69322       -3.46265        4.84590
H         12.09477       -2.91836        6.33255
