17

C          2.13226       -0.45305        1.18072
C          2.90160        0.06041       -0.03975
Ga         3.48543       -1.33257       -1.35894
S          1.49927       -2.60345       -1.98189
O          0.34786       -1.66023       -1.91682
O          1.64986       -3.37777       -3.23846
C          1.13290       -3.86602       -0.71170
I          5.06390       -3.08115       -0.09037
H          1.90092        0.35134        1.90098
H          2.70605       -1.22224        1.72009
H          1.17463       -0.90133        0.87803
H          3.81607        0.59237        0.27031
H          2.28814        0.77798       -0.60810
H          4.16331       -0.96468       -2.73160
H          1.01285       -3.37434        0.26075
H          1.95372       -4.59100       -0.68350
H          0.19315       -4.33392       -1.03462
