50

N          1.25611       -0.02350        0.13573
Ga         3.14853       -0.18448       -0.10155
C          3.92643        1.56561       -0.71649
C          4.98994        1.59132       -1.63722
C          5.54875        2.78913       -2.08897
C          5.06312        4.03516       -1.64393
C          3.99474        4.01681       -0.72718
C          3.44584        2.81196       -0.27774
Si         5.91723        5.61110       -2.18954
C          7.68768        5.60827       -1.49481
C          7.75992        5.45359        0.03216
C          9.18924        5.40572        0.58470
C          9.25861        5.29223        2.11099
C         10.69057        5.27259        2.65533
C         10.77894        5.18243        4.18199
C         12.21784        5.15917        4.71031
C         12.31035        5.06172        6.23539
C          6.01863        5.70786       -4.07973
C          5.00999        7.14806       -1.55465
I          4.31223       -0.63082        2.36493
H          1.03500        0.75393        0.76278
H          0.89317       -0.85206        0.61212
H          3.56948       -1.44143       -0.96839
H          5.39590        0.64573       -2.01064
H          6.38265        2.75046       -2.79921
H          3.58331        4.95863       -0.35111
H          2.62320        2.85229        0.44279
H          8.20240        6.53254       -1.81393
H          8.23027        4.77612       -1.97761
H          7.22257        4.53823        0.33140
H          7.22111        6.28694        0.51713
H          9.73545        6.31072        0.26086
H          9.72302        4.55259        0.12949
H          8.72847        4.37992        2.43426
H          8.70791        6.13629        2.56376
H         11.22138        6.18013        2.31440
H         11.23594        4.42146        2.21021
H         10.24877        4.27730        4.52639
H         10.23915        6.03529        4.63143
H         12.74456        6.06618        4.36621
H         12.75481        4.30964        4.25478
H         11.81692        5.91745        6.72099
H         13.35510        5.04301        6.57800
H         11.82212        4.14835        6.60684
H          6.53360        4.82866       -4.49208
H          6.56559        6.60555       -4.40469
H          5.01182        5.74038       -4.51969
H          4.94258        7.15435       -0.45782
H          3.98750        7.20162       -1.95413
H          5.54425        8.05848       -1.86428
