18

N          3.47298       -0.61343       -0.71207
C          2.47929        0.13582        0.11447
B          3.04642        0.29933        1.63050
S          1.68152        1.18938        2.69136
O          0.36327        0.56532        2.58946
O          2.12556        1.58437        4.02625
F          1.44803        2.67132        1.91948
C          4.49895        1.02387        1.78648
N          4.80101        1.98892        0.69877
H          3.04009       -0.94290       -1.57800
H          3.75110       -1.45466       -0.20156
H          1.48591       -0.34973        0.12064
H          2.34606        1.12531       -0.35465
H          3.02256       -0.77256        2.23710
H          5.26178        0.21628        1.84562
H          4.55961        1.55679        2.74990
H          4.71670        1.48263       -0.18759
H          5.77717        2.28807        0.75859
