31

O          1.68752       -0.26214        0.05179
C          2.92030       -0.11471       -0.12985
O          3.64784       -0.32894       -1.11883
C          3.64648        0.53932        1.12136
S          2.88516       -0.02286        2.67296
O          2.74993       -1.46777        2.72327
O          3.56778        0.65138        3.78150
C          1.04306        0.62674        2.87962
C          0.70146        2.12973        2.54433
C          0.23907        2.61780        1.10952
C         -1.05442        2.00124        0.45213
F         -2.08778        2.04283        1.32987
F         -1.38404        2.78396       -0.60793
F         -0.89894        0.75864        0.02244
F         -0.05145        3.95177        1.28783
F          1.25527        2.54456        0.22999
F         -0.29844        2.51244        3.39783
F          1.80004        2.88844        2.83841
F          0.13546       -0.19927        2.33871
F          0.90932        0.52599        4.24136
C          5.16253        0.31827        1.20988
C          5.90502        1.47716        1.87402
C          7.41197        1.32795        1.93057
O          8.07483        0.44662        1.44028
O          8.05184        2.34004        2.62417
H          3.41843        1.61689        1.08805
H          5.46898        0.18568        0.16053
H          5.39609       -0.62903        1.71747
H          5.53259        1.62361        2.90220
H          5.68949        2.41685        1.33279
H          7.37435        2.94039        2.98154
