35

N          0.85805       -0.13744       -0.11364
B          2.30756        0.13317        0.20305
C          3.19908        0.24353       -1.14284
C          3.66334       -0.87305       -1.86862
C          4.32472       -0.74914       -3.08877
C          4.56665        0.52344       -3.63049
C          4.12867        1.65951       -2.92692
C          3.45644        1.50690       -1.71713
C          5.29345        0.68029       -4.92545
C          6.79308        1.16973       -4.86334
C          7.85109        0.36148       -4.01624
C          8.24040       -1.13071       -4.36390
C          8.83473       -1.52860       -5.77566
C         10.15336       -0.83360       -6.28006
F         11.12401       -0.88704       -5.34891
F         10.58410       -1.49705       -7.37784
F          9.94746        0.44609       -6.62435
F          9.12453       -2.85989       -5.67881
F          7.89351       -1.37095       -6.73517
F          9.17958       -1.48382       -3.43787
F          7.15891       -1.92496       -4.18274
F          9.01925        1.07853       -4.07719
F          7.44436        0.34037       -2.72608
F          7.28514        1.27261       -6.13697
F          6.80575        2.42385       -4.32426
F          5.30861       -0.48653       -5.66140
F          4.68801        1.63705       -5.73124
Cl         3.08625       -1.36664        1.29235
H          0.64392       -0.45851       -1.05441
H          0.20130        0.58759        0.15564
H          2.44145        1.11708        0.91858
H          3.50724       -1.86618       -1.44118
H          4.65484       -1.63820       -3.62612
H          4.30825        2.65559       -3.33492
H          3.11162        2.39907       -1.18700
