30

C          4.86926        2.86611       -0.89616
C          4.45604        1.47025       -0.41739
C          4.95088        0.34288       -1.32628
C          4.55499       -1.05961       -0.85977
C          5.11043       -2.16464       -1.77435
N          6.51460       -2.13845       -1.85028
C          6.99718       -3.17338       -2.67283
C          8.53852       -3.20062       -2.75966
C          9.15005       -3.40357       -1.37060
C          9.03954       -4.25547       -3.75130
H          4.50484        3.66114       -0.22627
H          4.47394        3.07020       -1.90373
H          5.96528        2.95132       -0.95463
H          3.35404        1.42531       -0.33429
H          4.84093        1.30603        0.60461
H          6.04925        0.36311       -1.41199
H          4.56091        0.50074       -2.34984
H          3.45220       -1.13978       -0.80365
H          4.95097       -1.22313        0.15940
H          4.58832       -2.04307       -2.78739
H          4.68607       -3.15461       -1.39909
H          6.60754       -3.12677       -3.74525
H          6.67252       -4.21998       -2.33799
H          8.84352       -2.20158       -3.12187
H          8.91360       -4.41471       -0.99489
H          8.70125       -2.67518       -0.68088
H         10.24795       -3.29140       -1.37682
H          8.74648       -5.26708       -3.42290
H         10.13843       -4.24129       -3.84523
H          8.60806       -4.09447       -4.75220
