31

N          1.19217        1.26986       -4.53529
C          2.64472        1.18726       -4.79363
C          3.44376        1.29113       -3.49665
C          4.96657        1.19940       -3.70195
C          5.77448        1.30383       -2.40690
Ta         7.97565        1.24770       -2.46182
C          8.11823        0.34331       -0.41671
C          8.07856        1.18510        0.86838
C          6.68737        1.76754        1.11451
S          6.51818        2.76440        2.64905
Cl         7.88802        3.26556       -3.81049
H          0.67864        1.29234       -5.41831
H          0.98542        2.15514       -4.06696
H          3.00698        1.96155       -5.49967
H          2.84236        0.21123       -5.26755
H          3.10635        0.50276       -2.80336
H          3.20839        2.25426       -3.00607
H          5.28433        1.99545       -4.39693
H          5.19764        0.24251       -4.20375
H          5.48187        0.49574       -1.71264
H          5.54119        2.26243       -1.89785
H          7.83824       -0.53890       -2.64640
H          9.02924        0.64651       -3.77218
H          9.02563        2.28870       -1.43849
H          9.14353       -0.07601       -0.53671
H          7.46299       -0.53811       -0.29851
H          8.80201        2.01270        0.80280
H          8.35534        0.58684        1.76120
H          5.92094        0.97924        1.12573
H          6.41192        2.47386        0.31765
H          6.91406        1.79364        3.50773
