33

C          0.73582       -2.12261       -0.01601
C          2.24837       -2.27274       -0.20865
C          3.01880       -1.22472        0.60584
C          4.56627       -1.23921        0.60850
S          5.21465       -0.95010       -1.08159
O          6.53197       -0.36258       -1.09279
O          4.95945       -2.09577       -1.94050
F          4.20848        0.19426       -1.65373
C          4.99038       -0.01213        1.59756
O          5.31828       -0.39557        2.74486
O          4.84630        1.12564        1.11054
C          5.13220       -2.60015        1.06200
C          6.65925       -2.71343        1.14557
C          7.09856       -3.97729        1.88946
C          8.61605       -4.09897        1.99582
N          9.00214       -5.31465        2.74116
H          0.17718       -2.87605       -0.59130
H          0.39290       -1.12925       -0.34357
H          0.45463       -2.23267        1.04308
H          2.49738       -2.18215       -1.27553
H          2.55283       -3.28817        0.09042
H          2.74940       -1.33521        1.67102
H          2.70050       -0.21297        0.31511
H          4.73406       -3.41350        0.43387
H          4.72585       -2.71984        2.07870
H          7.04175       -1.82653        1.67082
H          7.09977       -2.71429        0.13544
H          6.70086       -4.88164        1.39813
H          6.66957       -3.95874        2.90827
H          9.01478       -3.16701        2.44244
H          9.04922       -4.17590        0.98505
H          8.61253       -5.26191        3.68520
H         10.01655       -5.34185        2.85930
