38

C          0.47241        1.44944        2.12773
C          1.89316        1.98083        1.89196
C          2.87376        0.93255        1.33979
Al         4.71276        1.63207        0.95880
C          5.86400        0.18859       -0.06209
C          5.57584       -0.19070       -1.54169
C          5.64798        0.92766       -2.64606
C          6.97378        1.74911       -2.81657
F          8.04234        0.93680       -2.94411
F          6.87586        2.48238       -3.95875
F          7.17777        2.59685       -1.80402
F          5.43113        0.30777       -3.85113
F          4.64274        1.81925       -2.45364
F          6.40937       -1.19993       -1.96364
F          4.29239       -0.67430       -1.62015
F          7.23576        0.48795       -0.03958
F          5.75929       -1.05103        0.59654
C          5.77615        2.14979        2.70315
C          5.74073        1.39548        4.06444
C          6.22440       -0.09439        4.03531
C          6.50755       -0.73616        5.44249
F          5.47523       -0.55388        6.29212
F          6.69132       -2.06975        5.29140
F          7.62195       -0.23246        6.00798
F          5.26318       -0.85519        3.44546
F          7.37517       -0.21407        3.32344
F          6.50130        2.04938        5.01264
F          4.45061        1.38666        4.52757
F          7.12960        2.38041        2.44360
F          5.25716        3.41656        3.05686
H         -0.20062        2.22446        2.53066
H          0.48230        0.60834        2.83902
H          0.03313        1.07678        1.18853
H          2.27954        2.39113        2.84035
H          1.84230        2.84026        1.20120
H          2.46891        0.52097        0.39582
H          2.92478        0.07388        2.03263
H          4.78506        3.01582        0.12814
