50

C          5.24341       -0.98471       -3.96327
C          5.33414       -1.18437       -2.44930
Nb         3.35455       -1.56133       -1.41684
C          1.78573       -2.85566       -2.30498
C          1.23388       -4.06194       -1.80747
C          0.31258       -4.82321       -2.53395
C         -0.11015       -4.43546       -3.82204
C          0.41600       -3.22454       -4.32321
C          1.31411       -2.45560       -3.58180
Si        -1.22872       -5.48795       -4.89140
C         -2.27632       -6.66749       -3.81395
C         -3.18105       -7.59284       -4.63630
C         -4.02617       -8.53931       -3.81106
F         -4.87045       -7.88787       -2.96302
F         -4.81116       -9.33128       -4.60793
F         -3.27634       -9.38422       -3.04777
C         -2.40366       -4.40017       -5.90491
C         -0.20442       -6.54591       -6.08730
C          2.69482       -1.13032        0.62665
C          1.53549       -0.29313        0.05771
C          0.16863       -0.71164        0.55680
O         -0.45580       -0.11768        1.41421
O         -0.34304       -1.85349        0.01695
H          6.22750       -0.78570       -4.43205
H          4.57691       -0.14641       -4.22041
H          4.84014       -1.88435       -4.45840
H          5.65747       -0.24322       -1.95864
H          6.08126       -1.95362       -2.21640
H          4.02732       -3.09328       -1.98861
H          4.61724       -2.21576       -0.37164
H          3.29153        0.03894       -2.30712
H          1.55573       -4.44185       -0.83187
H         -0.07251       -5.74488       -2.08589
H          0.11354       -2.86697       -5.31341
H          1.67685       -1.51924       -4.02137
H         -2.88222       -6.06319       -3.12105
H         -1.59892       -7.27147       -3.19017
H         -2.59352       -8.22646       -5.31778
H         -3.88557       -7.01983       -5.25786
H         -3.06181       -3.81584       -5.24614
H         -3.03455       -4.99681       -6.58045
H         -1.84239       -3.68826       -6.52636
H          0.44736       -7.23748       -5.53441
H          0.44537       -5.90228       -6.69755
H         -0.83052       -7.13621       -6.77339
H          3.31304       -0.57839        1.34134
H          2.36447       -2.07062        1.09469
H          1.51071       -0.33962       -1.07880
H          1.67338        0.77167        0.27479
H          0.25646       -2.21413       -0.67666
