27

C          1.68722        0.50250        0.65751
S          3.42609        1.02515        0.62700
C          3.44868        2.00517       -0.93515
C          4.82338        2.59173       -1.18271
Ta         5.65056        3.38018       -3.02759
S          3.68001        4.89627       -2.80141
O          2.41428        4.18155       -3.01949
O          3.77858        5.71301       -1.58503
F          3.63660        6.05894       -4.00395
C          7.73488        3.83302       -2.53342
O          8.33217        2.61009       -1.89394
C          9.60703        2.67644       -1.53527
F          9.88569        3.67350       -0.63077
F          9.96924        1.50386       -0.95498
F         10.47253        2.88806       -2.58351
H          1.54525       -0.09950        1.56469
H          1.43954       -0.11469       -0.21775
H          1.01127        1.36788        0.69585
H          2.70152        2.80481       -0.85370
H          3.14027        1.33520       -1.75215
H          5.59500        1.77499       -1.19283
H          5.11236        3.28425       -0.37097
H          5.92698        1.98206       -4.11675
H          4.94996        3.72722       -4.60506
H          6.06613        5.05099       -3.42515
H          7.84940        4.66454       -1.82186
H          8.32097        4.06139       -3.43863
