28

S          1.83973        1.35448        1.73726
C          3.08714        0.14251        1.09510
C          3.43977        0.49319       -0.35036
C          4.44199       -0.45824       -0.97509
As         4.99405        0.18630       -2.86858
C          5.46769        0.87383       -4.77881
C          6.09827        2.23771       -4.68858
S          6.28679        3.01713       -6.34362
C          7.02399        4.61531       -5.88245
O          6.43695       -1.16609       -2.89515
H          1.75205        0.86687        2.99773
H          2.65678       -0.86624        1.15975
H          3.97912        0.19021        1.73453
H          3.84040        1.52285       -0.38317
H          2.51557        0.50853       -0.95452
H          4.03589       -1.47369       -1.10263
H          5.38540       -0.51154       -0.41302
H          4.01777       -0.92083       -3.55511
H          6.08393        1.16184       -2.21120
H          3.84136        1.30667       -2.83616
H          4.49334        0.89662       -5.28912
H          6.12858        0.13074       -5.24157
H          7.09428        2.17853       -4.22333
H          5.47323        2.90951       -4.07311
H          7.16133        5.19548       -6.80488
H          8.00313        4.47918       -5.40069
H          6.36375        5.17679       -5.20565
H          6.01308       -1.92056       -3.33755
