75

S          5.62834       -4.19426        1.73141
C          6.21825       -4.77963        0.08716
C          5.43325       -4.04413       -0.99673
C          5.66300       -2.53856       -1.08636
Ta         6.29878       -2.78313       -3.15631
S          4.52906       -2.34821       -4.82154
O          3.91024       -2.84716       -3.51655
O          3.94321       -1.14192       -5.42039
C          3.85322       -3.64259       -6.14628
C          3.74437       -5.19343       -5.92411
C          2.86992       -5.71031       -4.71823
C          2.30139       -7.16708       -4.91997
F          3.27423       -8.02845       -5.28228
F          1.77713       -7.59618       -3.74888
F          1.32209       -7.20609       -5.84310
F          3.61497       -5.74789       -3.58988
F          1.79648       -4.90275       -4.52106
F          3.17236       -5.70897       -7.07264
F          4.97837       -5.74097       -5.82137
F          2.61410       -3.21817       -6.51664
F          4.68369       -3.49767       -7.22972
C          8.32513       -3.48095       -2.53494
C          8.86006       -4.66861       -3.08702
C         10.16293       -5.10047       -2.81656
C         11.01581       -4.37833       -1.95992
C         10.47730       -3.21919       -1.36196
C          9.17833       -2.78886       -1.64416
Si        12.84103       -4.79828       -1.81665
C         13.75433       -3.60955       -2.99183
C         15.24775       -3.84481       -3.25662
C         15.84933       -2.81771       -4.22474
C         17.30146       -3.09572       -4.62144
C         17.87749       -2.05382       -5.58565
C         19.30125       -2.36433       -6.05522
C         19.87534       -1.31669       -7.01439
C         21.28715       -1.65184       -7.50063
C         13.48413       -4.56026       -0.04913
C         13.16694       -6.59055       -2.33969
H          6.25934       -5.14265        2.46334
H          6.05785       -5.86475        0.02655
H          7.29118       -4.56764       -0.00871
H          4.36124       -4.27817       -0.93178
H          5.72589       -4.57765       -1.96836
H          6.45583       -2.17909       -0.41561
H          4.75334       -1.94703       -0.95264
H          7.48967       -1.81666       -4.05146
H          6.00933       -4.30090       -4.05738
H          5.74212       -1.11407       -3.42448
H          8.24966       -5.26488       -3.77087
H         10.52148       -6.01590       -3.29813
H         11.08972       -2.62529       -0.67443
H          8.83048       -1.86665       -1.16637
H         13.59752       -2.58822       -2.60113
H         13.20325       -3.63628       -3.94805
H         15.39650       -4.85622       -3.67388
H         15.81541       -3.82374       -2.30944
H         15.77439       -1.81178       -3.77546
H         15.22739       -2.78475       -5.13650
H         17.36394       -4.09539       -5.08718
H         17.93163       -3.14402       -3.71552
H         17.85909       -1.06093       -5.10267
H         17.21616       -1.97207       -6.46626
H         19.31347       -3.35258       -6.54850
H         19.96605       -2.45684       -5.17788
H         19.87916       -0.33268       -6.51573
H         19.20133       -1.21297       -7.88149
H         21.98913       -1.73386       -6.65705
H         21.67502       -0.88255       -8.18343
H         21.30376       -2.61261       -8.03697
H         13.28378       -3.54378        0.31858
H         14.57040       -4.72722        0.00385
H         13.00060       -5.26546        0.64189
H         12.86895       -6.77120       -3.38228
H         12.60637       -7.29233       -1.70555
H         14.23510       -6.83729       -2.25099
