66

C          0.84346        0.53902       -0.13866
C          2.36159        0.66112        0.01901
C          2.90054       -0.00139        1.29193
C          4.42233        0.09726        1.44012
C          4.97740       -0.63782        2.66489
C          6.50558       -0.58992        2.76704
C          7.07966       -1.44725        3.90230
C          8.61491       -1.48008        3.93459
Si         9.37589       -2.60357        5.26562
C          8.89744       -2.00051        6.97665
C          9.22673       -0.68542        7.36381
C          8.89873       -0.19944        8.63190
C          8.22963       -1.00064        9.56604
C          7.90106       -2.30689        9.18821
C          8.22499       -2.80111        7.92158
P          7.79214       -0.30038       11.30150
C          5.68800       -0.00601       10.51417
C          5.58979        1.28604        9.88789
O          5.23325        2.35220       10.40910
O          6.03561        1.37526        8.57375
C          7.28336        0.41488       13.01771
C          7.65191        1.89677       13.19998
C          6.58003        2.69894       13.92489
O          6.66589        3.01038       15.12120
N          5.50842        3.03658       13.15645
C          8.79542       -4.38344        4.98244
C         11.25832       -2.53861        5.06721
H          0.49064        1.02148       -1.06149
H          0.31541        1.00865        0.70482
H          0.53013       -0.51557       -0.17436
H          2.64774        1.72677        0.01509
H          2.85943        0.21350       -0.85848
H          2.60415       -1.06582        1.29795
H          2.41410        0.44980        2.17451
H          4.71802        1.16044        1.48334
H          4.89975       -0.31034        0.53060
H          4.65298       -1.69340        2.62654
H          4.53153       -0.21946        3.58365
H          6.83709        0.45558        2.89361
H          6.94068       -0.93055        1.80962
H          6.68728       -2.47395        3.79524
H          6.69874       -1.08159        4.87075
H          9.00876       -0.45967        4.08563
H          9.00507       -1.80925        2.95405
H          9.74793       -0.02405        6.66296
H          9.15304        0.82892        8.91129
H          7.37416       -2.94456        9.90792
H          7.94473       -3.82732        7.66555
H          8.13723        1.04198       10.80026
H          7.29639       -1.63109       11.70158
H          9.16439       -0.56961       11.76791
H          5.06407       -0.09320       11.40553
H          5.58062       -0.85987        9.83917
H          6.43176        0.51622        8.33870
H          7.79256       -0.21896       13.75935
H          6.20229        0.26157       13.13450
H          7.81797        2.33972       12.19820
H          8.58391        2.00778       13.76757
H          5.40337        2.75520       12.16710
H          4.73894        3.50160       13.62337
H          7.70599       -4.47898        5.08978
H          9.26518       -5.07174        5.69930
H          9.06594       -4.71504        3.96920
H         11.63081       -1.51741        5.23157
H         11.56847       -2.85679        4.06088
H         11.74757       -3.19252        5.80262
