27

Cl         3.67611       -2.49697       -0.83182
In         4.35989       -0.32928        0.13942
C          2.34671        0.54547        0.94105
C          2.06277        0.56652        2.46168
C          2.89289        1.60282        3.28808
F          2.45024        2.86338        3.09857
F          2.78255        1.33178        4.61546
F          4.20287        1.56251        2.96934
F          0.74132        0.83880        2.75563
F          2.33256       -0.67444        2.97487
F          2.18711        1.87426        0.51232
F          1.27427       -0.14757        0.39283
C          4.82138        0.90325       -1.62730
C          5.25866        2.23498       -1.52438
C          5.52764        3.01375       -2.65612
C          5.37099        2.48746       -3.94592
C          4.92703        1.16151       -4.06044
C          4.65866        0.38785       -2.92559
C          5.69529        3.31224       -5.16895
H          5.54004       -0.63901        1.39347
H          5.38884        2.69469       -0.53971
H          5.86054        4.04998       -2.53645
H          4.78397        0.72927       -5.05660
H          4.30846       -0.64120       -3.05198
H          5.59450        4.38796       -4.96446
H          5.03358        3.06142       -6.01104
H          6.73038        3.14003       -5.50835
