62

C          8.78011       -1.92952        5.55313
C          8.25831       -1.56134        4.16200
C          8.93042       -2.35052        3.03394
C          8.41677       -1.98921        1.63720
C          9.09010       -2.77712        0.50919
C          8.58086       -2.40915       -0.88811
C          9.24428       -3.20949       -2.01559
C          8.73525       -2.84549       -3.41900
Si         9.42355       -3.92204       -4.83242
C          9.01262       -5.72147       -4.49980
C          7.71281       -6.08956       -4.09022
C          7.38420       -7.42472       -3.83888
C          8.33267       -8.43805       -3.98859
C          9.61831       -8.08800       -4.40203
C          9.96039       -6.75442       -4.65045
As         7.85785      -10.42446       -3.52633
C          7.05783      -10.78572       -5.53101
F          7.19529       -9.77512       -6.46640
F          7.64128      -11.89342       -6.12269
F          5.70243      -11.06833       -5.51261
C          8.56567      -10.31941       -1.58828
C          7.43618      -10.40161       -0.57526
C          7.89457      -10.59939        0.87678
C          8.62816       -3.33439       -6.45114
C         11.29864       -3.67455       -4.96633
H          8.28322       -1.34590        6.34142
H          9.86209       -1.74493        5.63281
H          8.61173       -2.99495        5.77049
H          8.40568       -0.48189        3.98624
H          7.16861       -1.72835        4.12061
H          8.78292       -3.43079        3.20838
H         10.02188       -2.18505        3.07575
H          8.56253       -0.90764        1.46457
H          7.32592       -2.15710        1.59650
H          8.93756       -3.85732        0.67756
H         10.18194       -2.61571        0.55377
H          8.73709       -1.32913       -1.06298
H          7.48876       -2.56831       -0.93119
H          9.07944       -4.28511       -1.83665
H         10.33719       -3.06006       -1.96511
H          8.95118       -1.78462       -3.64001
H          7.63443       -2.93566       -3.44319
H          6.94250       -5.31944       -3.96441
H          6.36823       -7.69372       -3.52055
H         10.36548       -8.88231       -4.53253
H         10.98108       -6.51410       -4.96632
H          6.38579       -9.91787       -3.11420
H          9.29898      -10.84523       -4.10354
H          7.44648      -11.95690       -3.26919
H          9.16326       -9.40235       -1.46658
H          9.23705      -11.19096       -1.51211
H          6.76602      -11.23519       -0.85761
H          6.81803       -9.49030       -0.63925
H          8.47771      -11.52797        0.98089
H          7.04209      -10.65833        1.57409
H          8.54047       -9.77023        1.20538
H          7.53735       -3.46930       -6.42008
H          9.00688       -3.92000       -7.30123
H          8.83572       -2.27137       -6.64727
H         11.81699       -3.99925       -4.05318
H         11.53895       -2.61417       -5.13537
H         11.71507       -4.24832       -5.80668
