19

I          0.74992        0.00307       -0.44988
C          2.83639       -0.10512       -0.11676
C          3.30101       -0.06458        1.28006
C          3.01548       -1.28285        2.26441
C          3.51271       -2.69320        1.78323
C          3.60743       -3.78067        2.91869
F          2.46560       -3.85743        3.63464
F          3.82388       -4.99178        2.35205
F          4.62782       -3.54064        3.76555
F          2.65143       -3.18130        0.85550
F          4.75334       -2.60563        1.23866
F          3.61996       -1.03302        3.47812
F          1.67692       -1.38875        2.50086
F          4.65338        0.14681        1.38635
F          2.68724        0.99887        1.97710
S          3.78863       -0.40376       -1.45811
O          3.17626        0.08421       -2.67800
O          5.20211       -0.19723       -1.21331
F          3.73189       -2.06369       -1.71847
