55

I          2.60098        0.50860       -1.35848
Ta         5.07913       -0.51204       -0.57965
C          5.95161        1.48640       -0.10855
C          5.45330        2.16554        1.03058
C          5.84896        3.46454        1.37095
C          6.76966        4.18128        0.57732
C          7.28039        3.51436       -0.55847
C          6.88990        2.21110       -0.87792
Si         7.28477        5.94142        0.95175
C          9.12631        6.01654        1.47365
C          9.41678        5.27224        2.78279
C         10.88638        5.29107        3.16377
C         11.26526        4.69306        4.56787
C         10.82632        3.22972        4.95385
C         11.27820        1.97719        4.09761
C         12.81786        1.68658        3.95601
C         13.15981        0.26576        3.36375
F         12.52662        0.05938        2.19766
F         14.49146        0.21008        3.14694
F         12.83353       -0.71607        4.22242
F         13.37824        2.60524        3.13429
F         13.41456        1.76095        5.17604
F         10.71791        0.89969        4.71972
F         10.73949        2.08353        2.85967
F         11.24855        3.02439        6.23261
F          9.46448        3.18985        4.95493
F         12.61655        4.77029        4.73518
F         10.68328        5.48923        5.51729
F         11.65489        4.64567        2.22442
F         11.35823        6.58865        3.22125
C          7.13273        7.04617       -0.57850
C          6.25433        6.69014        2.35496
C          6.10405       -2.38569        0.03267
N          6.55588       -1.31304        0.92590
H          5.03351       -1.30197       -2.17363
H          6.72835       -0.54818       -1.29136
H          4.19186       -1.17636        0.86816
H          4.70997        1.67441        1.67005
H          5.41455        3.93483        2.25975
H          7.99881        4.02357       -1.21190
H          7.32521        1.73035       -1.75869
H          9.42782        7.07228        1.56162
H          9.72443        5.58191        0.65732
H          9.09965        4.22260        2.70116
H          8.85789        5.71328        3.62166
H          7.73575        6.65601       -1.41070
H          7.46997        8.07197       -0.36726
H          6.08934        7.09074       -0.92061
H          6.34201        6.11832        3.28981
H          5.18887        6.71658        2.08639
H          6.57538        7.72229        2.56101
H          6.91833       -2.80401       -0.56221
H          5.53606       -3.15831        0.56177
H          6.28262       -1.38942        1.90058
H          7.52392       -1.03046        0.81659
