66

C          0.84384        0.33824        0.16775
C          2.37321        0.28856        0.13371
C          2.94104       -1.11325        0.37555
C          4.47128       -1.16982        0.36466
C          5.03795       -2.57785        0.56897
C          6.56843       -2.63290        0.57771
C          7.13045       -4.04908        0.75294
C          8.66429       -4.11309        0.76965
Si         9.41325       -5.84999        1.02360
C          8.87485       -6.57824        2.66546
C          7.63999       -7.23626        2.81730
C          7.21585       -7.72402        4.05826
C          8.00282       -7.59524        5.21769
C          9.24824       -6.94699        5.06225
C          9.66427       -6.44846        3.82968
C          7.56471       -8.07231        6.58901
C          8.70349       -8.99006        7.33541
O          9.79575       -9.14413        6.74395
O          8.31739       -9.43000        8.44623
C          7.39710       -6.83726        7.52718
C          6.33697       -5.83011        7.07718
S          6.17564       -4.34811        8.14115
C          7.77254       -3.53641        7.84742
C          6.25754       -8.89827        6.58189
C          6.38615      -10.30677        5.98676
C          8.86183       -6.95979       -0.41294
C         11.29756       -5.66372        0.95774
H          0.46595        1.35393       -0.01747
H          0.45878        0.01212        1.14556
H          0.40770       -0.32471       -0.59475
H          2.78135        0.97982        0.89047
H          2.73325        0.66078       -0.84074
H          2.54410       -1.80246       -0.39108
H          2.57004       -1.49386        1.34348
H          4.86521       -0.50069        1.14993
H          4.84365       -0.76372       -0.59309
H          4.65399       -3.24237       -0.22562
H          4.65556       -2.99127        1.51853
H          6.95330       -1.98879        1.38800
H          6.95634       -2.20113       -0.36284
H          6.73899       -4.68680       -0.05935
H          6.73646       -4.47947        1.68903
H          9.05169       -3.46616        1.57661
H          9.06778       -3.69674       -0.17202
H          6.98225       -7.37471        1.95354
H          6.24302       -8.21387        4.11589
H          9.90712       -6.86858        5.92562
H         10.64154       -5.95992        3.77181
H          8.37032       -6.32884        7.60361
H          7.16078       -7.22031        8.53017
H          5.32961       -6.27234        7.10179
H          6.51738       -5.48658        6.04666
H          7.73900       -2.57547        8.37737
H          7.92673       -3.34796        6.77579
H          8.60955       -4.12786        8.23953
H          5.44837       -8.34963        6.06681
H          5.95364       -9.00163        7.63371
H          6.75276      -10.29226        4.95043
H          5.41313      -10.82274        5.99376
H          7.09282      -10.89952        6.58270
H          7.77356       -7.11454       -0.41630
H          9.33426       -7.94960       -0.33793
H          9.14082       -6.52006       -1.38236
H         11.66184       -4.97695        1.73511
H         11.61643       -5.26339       -0.01618
H         11.79655       -6.63138        1.10901
