17

C          1.13960       -0.20922       -0.10596
S          2.94392       -0.20672        0.10426
C          3.47907       -0.21864       -1.65470
C          4.99469       -0.31945       -1.78967
B          5.49668       -0.28057       -3.34550
S          4.69229       -1.70255       -4.42899
S          7.44464       -0.20985       -3.45040
H          0.68542       -0.19089        0.89414
H          0.80183       -1.11373       -0.63279
H          0.80101        0.67701       -0.66300
H          3.10933        0.70735       -2.12423
H          2.99511       -1.07092       -2.15570
H          5.34208       -1.24724       -1.29721
H          5.47279        0.51605       -1.24922
H          5.13625        0.73915       -3.92298
H          5.13746       -2.77177       -3.72277
H          7.72628       -1.28788       -2.67760
