37

F          0.65621       -0.03269        0.09028
C          2.01353       -0.11576        0.19027
C          2.62794        1.06903        0.89866
C          2.35304        2.41815        0.22619
Si         3.17878        3.88875        1.14199
C          2.72281        3.88629        2.93848
C          3.54001        3.27954        3.92584
C          3.16144        3.20870        5.25661
C          1.91966        3.74129        5.72905
C          1.09654        4.35719        4.73036
C          1.49389        4.41681        3.40118
N          1.64322        3.58787        7.04487
C          0.61822        4.12086        7.71126
C          0.74038        5.62594        8.14773
F          1.84518        5.82098        8.91432
F          0.85058        6.44899        7.07178
F         -0.32447        6.07044        8.87623
F         -0.70323        4.07154        7.09354
F          0.40987        3.44378        8.93376
C          5.05435        3.71687        0.90304
C          2.59801        5.45594        0.24736
F          2.28426       -1.29170        0.83577
F          2.48535       -0.26732       -1.08769
H          3.70706        0.85865        0.95826
H          2.24549        1.06427        1.93050
H          1.26707        2.60198        0.20443
H          2.69486        2.40015       -0.82186
H          4.50821        2.85354        3.64223
H          3.81110        2.73546        5.99582
H          0.13475        4.77587        5.02143
H          0.81474        4.90202        2.69097
H          5.45008        2.80210        1.36731
H          5.58035        4.56797        1.35853
H          5.31307        3.68797       -0.16610
H          1.51518        5.60489        0.36569
H          2.81400        5.40493       -0.83048
H          3.10025        6.34401        0.65634
