58

C          8.47538        5.65862        1.58698
C          8.10023        4.25021        1.12100
C          8.69359        3.88358       -0.24263
C          8.31943        2.47683       -0.71677
C          8.90650        2.10419       -2.08121
C          8.52795        0.69439       -2.54269
C          9.11076        0.30298       -3.90619
C          8.72604       -1.11577       -4.34617
Si         9.40099       -1.73483       -6.01686
C          8.79858       -3.48966       -6.26181
C          7.41920       -3.76759       -6.36051
C          6.94536       -5.08066       -6.42892
C          7.80715       -6.19728       -6.40726
C          9.18637       -5.90526       -6.32828
C          9.67113       -4.59791       -6.25411
B          7.25306       -7.71868       -6.48956
C          7.76617       -8.49548       -7.84042
C          7.20263       -7.82686       -9.09216
C          7.48781       -8.47640      -10.43062
O          8.08002       -9.50715      -10.64658
O          6.97846       -7.77042      -11.51788
S          7.94057       -8.60488       -4.86216
C          8.77744       -0.58900       -7.39619
C         11.29485       -1.66027       -5.98757
H          8.03673        5.89319        2.56727
H          8.12363        6.41912        0.87341
H          9.56675        5.77018        1.67423
H          7.00196        4.15716        1.07369
H          8.43338        3.51216        1.87018
H          9.79364        3.97316       -0.19623
H          8.36235        4.62281       -0.99370
H          7.21942        2.38774       -0.75870
H          8.65228        1.73918        0.03467
H         10.00689        2.19250       -2.04126
H          8.57159        2.83858       -2.83543
H          7.42793        0.60531       -2.58317
H          8.86039       -0.03926       -1.78730
H         10.21021        0.39759       -3.86242
H          8.77637        1.03663       -4.66099
H          7.62634       -1.21121       -4.38295
H          9.05190       -1.84549       -3.58428
H          6.69599       -2.94346       -6.36987
H          5.86729       -5.26118       -6.48505
H          9.89384       -6.73932       -6.29936
H         10.75139       -4.43737       -6.17896
H          6.01830       -7.71157       -6.46150
H          7.43961       -9.54850       -7.82268
H          8.86755       -8.51995       -7.90479
H          7.55546       -6.77950       -9.15405
H          6.10108       -7.74589       -9.00341
H          6.54414       -6.97326      -11.16685
H          7.53303       -9.86262       -5.15587
H          7.67998       -0.61261       -7.46301
H          9.17353       -0.91028       -8.37032
H          9.08434        0.45502       -7.23285
H         11.70753       -2.27416       -5.17427
H         11.64759       -0.62844       -5.84376
H         11.71914       -2.02983       -6.93224
