29

C          1.23111       -2.05681       -0.05103
C          2.71869       -2.04015       -0.41171
C          3.15909       -0.69196       -0.98824
C          4.63263       -0.61856       -1.39577
C          5.06155        0.71410       -1.97666
C          4.15742        1.74075       -2.28408
C          4.59257        2.93903       -2.86254
C          5.94164        3.15433       -3.16144
C          6.84694        2.12104       -2.86032
C          6.42074        0.92957       -2.28222
C          6.40974        4.43472       -3.80985
C          5.01007       -1.76205       -2.48690
O          4.08505       -1.90807       -3.32391
O          6.13408       -2.28969       -2.39592
Cl         5.62868       -0.83691        0.17267
H          0.92574       -3.03246        0.35711
H          0.60541       -1.85653       -0.93519
H          0.99077       -1.29071        0.70409
H          2.93114       -2.81928       -1.15857
H          3.32189       -2.27180        0.47924
H          2.93507        0.11314       -0.26581
H          2.57623       -0.50685       -1.90356
H          3.09557        1.61204       -2.07520
H          3.86178        3.72245       -3.08504
H          7.90854        2.25603       -3.08803
H          7.12896        0.12827       -2.06725
H          5.66840        5.23785       -3.69123
H          6.58005        4.30169       -4.89120
H          7.35927        4.78284       -3.37614
