26

C          1.80309       -1.54981        0.24680
S          2.35907        0.11151       -0.22482
O          3.22927       -0.06036       -1.41026
O          1.11806        0.90168       -0.39513
Al         3.55181        1.20969        1.50282
S          2.18082        0.85601        3.48163
O          1.47365       -0.43751        3.43778
O          2.89996        1.22260        4.71167
C          0.72602        2.17044        3.40234
F          0.84849        2.92496        2.28692
F         -0.47902        1.56643        3.38073
F          0.76147        2.99299        4.47397
C          5.45060        0.57009        2.05424
C          5.80584       -0.87039        2.52456
C          6.11554       -1.90016        1.38867
F          5.17301       -1.86180        0.42666
F          7.31703       -1.67212        0.82415
F          6.13753       -3.15458        1.90503
F          6.89946       -0.88079        3.34969
F          4.74665       -1.36001        3.23907
F          6.35387        0.89281        1.03587
F          5.78770        1.39690        3.12453
H          1.12970       -1.86236       -0.56266
H          1.27326       -1.47996        1.20418
H          2.66898       -2.21688        0.31452
H          3.64642        2.74983        1.12737
