36

C          0.81675        0.70529       -0.99772
C          2.30152        0.46968       -0.70889
C          2.89040        1.47011        0.28957
C          4.37121        1.24010        0.60564
C          4.94961        2.24367        1.61331
C          6.42834        2.02010        1.94468
Ga         7.17698        3.26255        3.33898
S          7.21603        5.44399        1.99124
O          8.48873        5.65213        1.26723
O          6.00861        5.81470        1.24836
F          7.30768        6.64758        3.20178
C          9.15569        3.21431        3.68769
C         10.00075        2.76216        2.46836
C         11.34440        3.47853        2.41126
O         12.40546        2.98846        2.81384
N         11.26568        4.73621        1.88327
H          0.41816       -0.02321       -1.71924
H          0.64965        1.71142       -1.41162
H          0.21755        0.62704       -0.07765
H          2.87314        0.51935       -1.65148
H          2.44438       -0.55465       -0.32319
H          2.30863        1.43000        1.22815
H          2.75856        2.49441       -0.10118
H          4.95762        1.28921       -0.32925
H          4.50755        0.21401        0.99425
H          4.35029        2.19955        2.54036
H          4.81134        3.26505        1.22074
H          7.03852        2.08769        1.02860
H          6.57909        0.99492        2.33229
H          6.20737        3.65953        4.52812
H          9.38050        2.58184        4.56043
H          9.43117        4.23859        3.98215
H          9.46656        2.96615        1.52660
H         10.19748        1.68262        2.51186
H         10.35627        5.15658        1.66678
H         12.08423        5.32851        1.95591
