30

C          1.28285        0.85529        0.71636
C          2.34854        0.00707        0.01602
C          3.65398        0.82789       -0.21081
C          3.53302        2.01987       -1.08518
C          3.55563        3.35938       -0.73265
C          3.52249        4.43071       -1.72222
C          3.45827        5.77112       -1.35938
C          3.44115        6.20759       -0.02142
C          3.51921        5.18097        0.95792
C          3.57423        3.83843        0.64087
C          3.35526        7.66117        0.35461
O          3.41537        1.65507       -2.46305
C          2.63410       -1.29137        0.77956
H          1.15381        1.80855        0.18371
H          1.59071        1.09599        1.74788
H          0.31101        0.33788        0.76712
H          1.97103       -0.25814       -0.98772
H          4.40324        0.12085       -0.63582
H          4.05246        1.12892        0.77446
H          3.62123        4.18923       -2.78451
H          3.44135        6.52421       -2.15788
H          3.53312        5.46237        2.01831
H          3.61639        3.11156        1.45604
H          3.35710        8.29618       -0.54628
H          4.20289        7.99877        0.98463
H          2.43551        7.91685        0.92036
H          2.89632        2.36559       -2.87899
H          3.00599       -1.07365        1.79601
H          3.40658       -1.88896        0.26846
H          1.73427       -1.91916        0.88478
