40

N          0.40211       -1.32920        0.30230
C          1.65639       -0.79546        0.91739
C          2.91003       -1.40355        0.33100
Nb         5.01197       -0.94436        0.83007
C          5.99619        0.59760       -0.40978
C          6.20415        2.06973       -0.08252
C          6.92033        2.85416       -1.20540
C          7.09932        4.32965       -0.92146
C          7.84754        5.12742       -2.03339
F          9.09700        4.63706       -2.22322
F          7.18761        5.04716       -3.21466
F          7.96537        6.43826       -1.71741
F          5.88570        4.96641       -0.75950
F          7.81847        4.54316        0.23620
C          6.32275       -2.55608        1.69159
C          5.71582       -3.84878        1.18950
S          6.88058       -5.29504        1.27574
C          5.83891       -6.61404        0.57939
H         -0.40851       -1.00272        0.83764
H          0.40815       -2.34805        0.40358
H          1.68496       -0.93566        2.01329
H          1.66520        0.29122        0.73963
H          2.90543       -1.27372       -0.77902
H          2.91903       -2.50696        0.50753
H          5.84560       -0.06397        2.09602
H          4.31498       -0.99574        2.43478
H          4.25179        0.51741        1.41316
H          5.40064        0.49785       -1.35109
H          6.97544        0.10710       -0.62695
H          6.78212        2.15240        0.84874
H          5.22759        2.53215        0.11980
H          6.35502        2.76684       -2.14662
H          7.91919        2.42713       -1.38784
H          6.53152       -2.59212        2.76564
H          7.27562       -2.34029        1.16122
H          5.40354       -3.79572        0.12589
H          4.82644       -4.12246        1.77887
H          6.42902       -7.54034        0.57647
H          5.54121       -6.38416       -0.45425
H          4.93659       -6.77350        1.18752
