15

O          1.23007       -0.12480        0.22154
C          2.46518        0.11855        0.16415
O          3.26895        0.35871        1.11222
C          3.09296        0.15459       -1.28743
C          2.68717        1.45373       -2.01675
C          1.21056        1.53739       -2.41504
N          4.55959        0.00809       -1.20281
H          2.66045       -0.69841       -1.84359
H          3.31652        1.54883       -2.92393
H          2.95022        2.30705       -1.36584
H          0.95535        0.74890       -3.14100
H          0.97314        2.51034       -2.87517
H          0.57510        1.38177       -1.53290
H          4.74361        0.16941       -0.19709
H          5.01262        0.77745       -1.70344
