45

N          0.39809        3.73413       -0.05131
C          1.66375        4.35081       -0.19989
N          1.98419        5.23519       -1.08606
N          2.58066        3.88007        0.71130
C          3.99638        4.23813        0.63435
C          4.74955        3.68037        1.84057
C          6.26429        3.92301        1.78389
C          7.02868        3.40964        3.00846
Ga         9.03408        3.63344        2.85034
S          9.89430        1.36683        2.51043
O         11.37215        1.30654        2.69084
O          9.10328        0.33804        3.24541
C          9.64411        0.94105        0.74060
C         10.07696        4.24456        4.46591
C          9.59971        3.69639        5.81221
C         10.43010        4.25965        6.98228
C          9.95863        3.82765        8.35347
C         10.77477        4.42691        9.53999
F         12.07972        4.07484        9.45587
F         10.70926        5.78178        9.53420
F         10.30765        3.99885       10.73503
F          8.64790        4.20028        8.57864
F         10.01565        2.46069        8.50642
H         -0.33476        4.22517       -0.55439
H          0.13011        3.57924        0.91902
H          1.15618        5.54196       -1.60461
H          2.40128        2.94242        1.05889
H          4.06426        5.33480        0.59711
H          4.44255        3.86731       -0.30649
H          4.57143        2.59089        1.91251
H          4.33743        4.12203        2.76383
H          6.44711        5.00464        1.65347
H          6.66269        3.45220        0.86752
H          6.82675        2.33716        3.16631
H          6.67208        3.92759        3.91620
H          9.48534        4.35152        1.49357
H         10.18477        1.66566        0.12048
H          8.56908        0.95629        0.52015
H         10.05160       -0.07119        0.61603
H         10.04126        5.34931        4.47424
H         11.12881        3.96543        4.29108
H          9.66403        2.59792        5.81841
H          8.53958        3.94765        5.97476
H         10.40932        5.36058        6.95852
H         11.48214        3.95319        6.87785
