24

F          1.69844        1.60071       -1.78191
C          1.19674        1.33799       -0.56035
C          1.34682       -0.16749       -0.18008
S          0.51357       -1.41581       -1.35469
O         -0.88451       -1.00904       -1.33701
O          1.26604       -1.26221       -2.58802
N          0.84283       -2.82494       -0.73747
C          0.26719       -3.40562        0.34814
C          0.11280       -4.95770        0.15384
C          1.36532       -5.79140       -0.31252
C          2.69118       -5.69395        0.52012
F          2.46833       -5.93430        1.82852
F          3.54717       -6.65100        0.06762
F          3.29348       -4.50971        0.38281
F          0.98812       -7.11344       -0.25853
F          1.67226       -5.50662       -1.59874
F         -0.32889       -5.52618        1.31840
F         -0.84259       -5.18838       -0.79610
F          1.03895       -3.27349        1.53649
F         -1.00073       -2.97751        0.74249
F          2.68506       -0.43007       -0.11344
F          0.82657       -0.30731        1.07511
F          1.88481        2.10764        0.33546
F         -0.08776        1.73795       -0.52617
