37

C          1.47915        4.82080        1.48592
C          2.96056        4.45527        1.35712
C          3.32159        3.12180        2.02025
C          4.80664        2.73979        1.89917
C          5.18088        1.43055        2.60321
Nb         7.33965        0.94957        2.90725
S          9.17952        0.81741        1.22073
O          9.16231       -0.08022        0.06888
O          9.56355        2.21867        0.96830
F         10.56996        0.25220        2.08121
C          8.27250        2.36706        4.28187
C          7.47943        3.19805        5.29404
C          6.52377        2.41583        6.20582
C          9.10104        1.20767        4.81219
H          1.24947        5.78350        1.00470
H          1.18073        4.89648        2.54310
H          0.84022        4.05441        1.02066
H          3.57738        5.25637        1.79959
H          3.23969        4.41641        0.29028
H          2.70779        2.31470        1.58028
H          3.04304        3.16111        3.08946
H          5.40874        3.57893        2.29773
H          5.07791        2.66983        0.83270
H          4.66262        0.57712        2.13338
H          4.81067        1.45219        3.65199
H          6.42871       -0.29678        3.77606
H          7.95899       -0.70244        2.89771
H          6.96934        1.30037        1.20287
H          8.87129        3.02480        3.63163
H          6.90204        3.96034        4.74418
H          8.17977        3.76798        5.93902
H          5.76153        1.87662        5.62489
H          6.00438        3.09159        6.90191
H          7.05824        1.67006        6.81240
H          8.95065        1.02196        5.88516
H         10.17126        1.28879        4.58931
H          8.82000        0.20650        4.32936
