37

C          0.89103        0.52133        0.37008
O          2.28857        0.40279        0.20898
C          2.89500       -0.30019        1.29148
C          4.39684       -0.37230        1.04899
O          4.95546       -1.12451        2.10348
C          6.39123       -1.22105        2.00075
C          6.89464       -1.95658        3.23722
C          8.42714       -2.02776        3.41365
C          9.08926       -2.67633        2.20191
F          8.38180       -3.78670        1.73831
F          9.16540       -1.84316        1.12078
F         10.34778       -3.13569        2.42443
C          9.07787       -0.53602        3.64797
O          8.24136        0.38449        3.79801
O         10.32631       -0.52651        3.70051
C          8.79275       -2.79948        4.70620
C          8.51583       -4.31115        4.78467
C          8.88451       -4.82800        6.17449
S          8.87525       -6.65244        6.37492
H          0.50597        1.07324       -0.49785
H          0.63003        1.07576        1.29294
H          0.39761       -0.46985        0.41341
H          2.47976       -1.32444        1.36766
H          2.69364        0.21698        2.24964
H          4.82367        0.64971        1.01393
H          4.59149       -0.84627        0.06427
H          6.83409       -0.21212        1.97362
H          6.64271       -1.75799        1.06763
H          6.45028       -2.96555        3.25185
H          6.52240       -1.39955        4.10853
H          8.25255       -2.29238        5.52389
H          9.86411       -2.62030        4.88177
H          9.10298       -4.85366        4.03040
H          7.45538       -4.53645        4.58284
H          8.24245       -4.38510        6.94896
H          9.92193       -4.55289        6.41960
H          7.58229       -6.84694        6.02260
