49

C          1.02219       -0.68548        0.68400
C          2.55053       -0.60935        0.65356
C          3.11008        0.62472        1.36752
C          4.63773        0.72631        1.32643
C          5.18686        1.98128        2.01200
C          6.71263        2.10441        1.95679
C          7.24593        3.38472        2.61205
C          8.77109        3.54207        2.53321
Si         9.45956        5.12120        3.35696
C          9.04792        5.17132        5.17573
C          9.63544        4.26086        6.08380
C          9.34281        4.25617        7.44392
C          8.41756        5.18568        7.99489
C          7.82169        6.09963        7.08379
C          8.12779        6.09073        5.72883
N          8.01356        5.28547        9.30913
S          8.68975        4.48449       10.47566
O         10.14223        4.35505       10.45269
O          8.05575        4.81074       11.73719
F          8.20141        2.89519       10.21717
C         11.33795        5.11629        3.08119
C          8.73682        6.63035        2.46044
H          0.64819       -1.57538        0.15814
H          0.57180        0.19801        0.20699
H          0.64753       -0.72654        1.71756
H          2.89847       -0.60912       -0.39354
H          2.97521       -1.51799        1.11278
H          2.77303        0.62091        2.41909
H          2.67336        1.53312        0.91521
H          4.97384        0.71026        0.27380
H          5.07693       -0.17093        1.79764
H          4.85924        1.99511        3.06620
H          4.73505        2.87472        1.54448
H          7.04386        2.07040        0.90273
H          7.17113        1.22747        2.44721
H          6.93226        3.40981        3.66928
H          6.75758        4.25251        2.13399
H          9.09907        3.52337        1.47735
H          9.25721        2.67544        3.01588
H         10.35831        3.52293        5.71793
H          9.83518        3.54262        8.10332
H          7.10652        6.81808        7.48976
H          7.63570        6.82345        5.08221
H         11.81239        4.27739        3.61066
H         11.78751        6.04272        3.46638
H         11.59142        5.02884        2.01374
H          7.64323        6.68394        2.55849
H          8.97516        6.59411        1.38678
H          9.15270        7.56342        2.86686
