51

N          6.33149       -7.11754        3.35846
C          5.59042       -5.96555        3.01529
N          4.30296       -5.90750        2.89099
N          6.38183       -4.88227        2.71340
C          5.83379       -3.53616        2.60585
C          6.83343       -2.59508        1.93042
C          6.48088       -1.11246        2.11339
C          6.89445       -0.50035        3.47381
C          8.39796       -0.45287        3.71998
S          9.14104        0.93884        3.11440
O         10.57584        0.81151        2.85960
O          8.28790        1.59682        2.12473
C          9.11707        2.22974        4.55434
C          9.90627        3.57331        4.41298
C          9.59560        4.48645        3.17801
F          8.27701        4.73563        3.06560
F         10.22791        5.67855        3.35619
F         10.04693        3.95313        2.03659
F          9.63830        4.33821        5.52726
F         11.24010        3.32073        4.40192
F          7.81175        2.54516        4.82517
F          9.63048        1.62514        5.67120
C          9.10229       -1.42560        4.52427
C         10.51541       -1.41675        4.75872
C         11.13640       -2.38570        5.53353
C         10.42526       -3.43554        6.13709
C          9.04587       -3.46352        5.92521
C          8.39806       -2.49953        5.14823
C          8.23806       -4.52770        6.61344
F          8.90766       -5.72050        6.70074
F          7.91113       -4.19011        7.89989
F          7.05728       -4.80164        5.98491
C         12.62305       -2.33074        5.76310
F         13.25482       -1.37402        5.04185
F         12.93013       -2.09442        7.08017
F         13.23336       -3.52133        5.45424
H          5.76564       -7.80053        3.85257
H          7.18828       -6.92916        3.87705
H          3.88373       -6.81550        3.10876
H          7.34321       -4.92092        3.03735
H          5.55195       -3.15233        3.60514
H          4.90178       -3.60284        2.02892
H          6.88699       -2.84807        0.86005
H          7.84600       -2.76675        2.33440
H          5.39299       -0.97374        1.97586
H          6.97079       -0.51914        1.32929
H          6.39780       -1.03246        4.30073
H          6.48641        0.51894        3.50545
H         11.11896       -0.63655        4.30410
H         10.92665       -4.19456        6.73392
H          7.32001       -2.58094        5.03142
