35

O          3.75970       -0.25128        2.12388
C          4.90658       -0.81552        1.65329
O          5.34399       -1.83184        2.15545
C          5.55868       -0.06778        0.48510
C          4.81797        1.14379       -0.07748
In         5.90568        2.23292       -1.73576
C          4.76254        4.25469       -1.52749
C          5.21266        5.47964       -2.33928
F          6.50942        5.78858       -2.06279
F          5.12722        5.23081       -3.67288
F          4.48369        6.61296       -2.10455
F          3.39735        4.10914       -1.81754
F          4.80196        4.68237       -0.18739
C          8.01273        2.63049       -1.07534
C          8.14100        3.21694        0.33366
C          9.61291        3.45641        0.73397
C          9.80499        3.98766        2.13962
C         11.29044        4.24701        2.54113
F         12.02003        3.10866        2.44993
F         11.85694        5.16868        1.72508
F         11.39241        4.70180        3.80999
F          9.15029        5.18571        2.32515
F          9.30930        3.11152        3.08234
H          3.61355        0.54187        1.55496
H          5.73826       -0.83162       -0.28875
H          6.56545        0.20662        0.84317
H          4.67815        1.92744        0.68701
H          3.83076        0.86773       -0.48082
H          5.70405        1.55010       -3.34935
H          8.46869        3.31236       -1.81184
H          8.57115        1.68117       -1.14248
H          7.68175        2.54466        1.07573
H          7.59406        4.16902        0.40513
H         10.07795        4.17332        0.03999
H         10.18059        2.51617        0.65766
