28

Nb         1.09612       -0.40338       -0.28341
C         -0.32757       -0.94796        1.27186
C         -0.93399       -2.32134        1.51042
C         -1.76826       -2.82855        0.32951
C          0.65169       -0.42545        2.30726
C         -0.34560        0.52092       -1.71821
C         -0.08383        1.59952       -2.76910
C          0.68153        1.20130       -4.02995
O          0.61423        1.85291       -5.06220
O          1.45904        0.10717       -3.96822
Br         2.47885       -2.59990        0.22158
H          2.62674        0.27179        0.26061
H          1.45705       -1.14171       -1.88961
H          1.21491        1.37069       -0.16995
H         -1.11787       -0.19705        1.07120
H         -1.56751       -2.31151        2.42100
H         -0.11174       -3.02848        1.70681
H         -2.57363       -2.12203        0.07515
H         -2.23343       -3.79992        0.55553
H         -1.14194       -2.95699       -0.56517
H          1.11830       -1.24420        2.87030
H          0.23152        0.32332        2.99604
H          1.53310        0.11514        1.82763
H         -0.98695        0.97963       -0.93784
H         -0.93161       -0.30808       -2.16542
H          0.50193        2.41672       -2.31322
H         -1.00992        2.06640       -3.14683
H          1.39924       -0.33058       -3.05295
