26

F          4.19877        0.30196       -0.57744
C          2.91635        0.71866       -0.74845
S          2.00315       -0.55325       -1.90487
O          0.62953       -0.07784       -1.99729
O          2.86456       -0.50524       -3.08066
B          2.17200       -2.26995       -1.01580
S          0.46533       -2.76902       -0.24713
O         -0.01217       -1.66927        0.58584
O         -0.43025       -3.41658       -1.19988
C          0.84198       -4.14311        1.06746
F          2.04063       -3.95355        1.65962
F         -0.11621       -4.05316        2.01926
F          0.79586       -5.37782        0.55104
S          3.00436       -3.64120       -2.08293
O          4.28900       -3.18805       -2.59924
O          2.93398       -4.89286       -1.33051
C          1.92934       -3.96724       -3.66044
F          1.15279       -2.90742       -3.94792
F          2.75043       -4.19985       -4.70604
F          1.14795       -5.04729       -3.49262
C          2.33001        1.04413        0.65539
F          2.38875       -0.02823        1.46465
F          3.07118        2.03446        1.23327
F          1.06362        1.47522        0.57467
F          2.92651        1.87573       -1.46481
H          2.97138       -2.15236       -0.12655
