38

C          0.79471       -1.59305       -0.44749
C          2.17034       -0.94420       -0.26608
C          2.92472       -0.72449       -1.58564
C          4.31031       -0.09036       -1.41864
Ga         5.29939        0.16828       -3.15501
C          4.51514        1.95879       -3.95393
C          5.02877        2.65862       -5.24371
C          5.13759        1.75238       -6.51926
C          5.34643        2.52789       -7.87288
F          4.22950        3.17856       -8.25588
F          6.35484        3.41844       -7.79473
F          5.65325        1.63673       -8.84729
F          6.19418        0.91196       -6.38345
F          4.00735        1.01094       -6.68365
F          4.21665        3.72644       -5.58230
F          6.27240        3.16917       -5.00111
F          3.14978        1.71984       -4.18632
F          4.53399        2.99044       -3.00600
C          7.39653        0.24561       -2.91393
C          8.08240        0.69510       -1.59574
C          7.88548        2.18431       -1.17215
F          6.58474        2.47838       -0.99981
F          8.52002        2.40735        0.01210
F          8.40530        3.03633       -2.07684
F          7.60485       -0.07151       -0.56388
F          9.44631        0.49878       -1.64338
F          7.84838       -1.07647       -3.06281
F          8.03910        0.96265       -3.92577
H          0.27471       -1.73643        0.51181
H          0.88349       -2.57882       -0.93013
H          0.14841       -0.97419       -1.08877
H          2.78974       -1.56830        0.40140
H          2.05793        0.02634        0.24739
H          2.30147       -0.09732       -2.24663
H          3.01931       -1.69515       -2.10508
H          4.93196       -0.72275       -0.76283
H          4.21978        0.88409       -0.91137
H          5.10502       -0.96083       -4.24922
