25

C          0.97748       -0.02812       -0.01599
C          2.50886       -0.01662        0.00119
C          3.13186       -0.58095       -1.27978
C          4.66599       -0.59908       -1.26796
C          5.19362       -1.49844       -0.08039
O          4.85912       -2.71626       -0.14147
O          5.88546       -0.90942        0.79478
C          5.20750       -1.11204       -2.60853
C          6.73678       -1.11024       -2.70183
C          7.25977       -1.64907       -4.03684
H          0.55328        0.37950        0.91515
H          0.59271       -1.05354       -0.13409
H          0.57762        0.56892       -0.85239
H          2.87701       -0.60161        0.85807
H          2.87165        1.01351        0.16220
H          2.76785        0.00114       -2.15111
H          2.78757       -1.62111       -1.41877
H          5.04056        0.42589       -1.09166
H          4.78915       -0.50887       -3.44015
H          4.84180       -2.14559       -2.74180
H          7.13967       -1.71211       -1.87269
H          7.11316       -0.08493       -2.54089
H          6.92828       -2.68686       -4.19884
H          8.36013       -1.64178       -4.08090
H          6.88933       -1.05184       -4.88650
