31

N          0.60264       -1.08620       -0.40435
C          1.58216       -0.05793       -0.10648
Sb         3.70642       -0.50876       -0.75587
C          2.94480        0.37098       -3.08644
C          3.11953        1.82365       -3.56098
C          4.58276        2.27430       -3.86775
F          5.09647        1.62666       -4.93757
F          4.60371        3.60474       -4.15535
F          5.40275        2.07335       -2.81976
F          2.40308        2.12735       -4.71551
F          2.64217        2.66141       -2.58342
F          3.38629       -0.43360       -4.14971
F          1.54437        0.19150       -3.09214
C          5.79794       -0.94674       -1.51683
C          5.87509       -1.68218       -2.83416
S          7.58418       -2.29711       -3.15672
C          7.36843       -2.99144       -4.82312
H          0.93577       -1.99499       -0.06975
H          0.52816       -1.18411       -1.41993
H          1.66485        0.09774        0.98041
H          1.30058        0.88682       -0.58795
H          3.09774       -2.07599       -1.46976
H          4.10438       -1.24390        0.82498
H          4.23721        1.14278       -0.26763
H          6.21363       -1.54527       -0.69228
H          6.31150        0.02238       -1.54871
H          5.60248       -1.03234       -3.67465
H          5.19791       -2.55197       -2.84543
H          8.34275       -3.38576       -5.14115
H          7.04934       -2.21817       -5.53645
H          6.63613       -3.81140       -4.82611
