40

C          0.51263       -0.26809        0.39292
C          1.99517       -0.01117        0.67821
C          2.82789       -1.29324        0.78023
C          4.30785       -1.03260        1.08177
C          5.08343       -2.35172        1.17358
C          6.62046       -2.37301        1.46617
C          7.47629       -2.26740        0.17239
C          7.32027       -1.19513       -1.00015
C          7.66056        0.35307       -0.90593
C          9.06907        0.79230       -0.35537
F         10.05471        0.22185       -1.08637
F          9.16858        2.13912       -0.51295
F          9.26324        0.50781        0.92748
F          7.64693        0.78859       -2.21631
F          6.69850        1.03767       -0.26682
F          8.14637       -1.65214       -1.99588
F          6.04327       -1.25228       -1.48759
F          8.81083       -2.21635        0.50400
F          7.29810       -3.44351       -0.54565
C          7.01786       -1.23037        2.50070
O          7.48539       -1.61344        3.62450
O          6.80119       -0.06473        2.13824
C          6.86995       -3.80538        2.05461
C          8.28796       -4.31300        2.37233
O          8.72196       -5.34238        1.87236
O          8.96025       -3.61347        3.27923
H         -0.05821        0.66943        0.32143
H          0.05394       -0.87679        1.18754
H          0.37752       -0.81266       -0.55446
H          2.09828        0.56176        1.61519
H          2.41873        0.63064       -0.11267
H          2.73583       -1.86027       -0.16451
H          2.39763       -1.94440        1.56378
H          4.40803       -0.47731        2.02462
H          4.72215       -0.37345        0.31024
H          4.90737       -2.94342        0.25945
H          4.62475       -2.93764        1.98668
H          6.41610       -4.55455        1.39582
H          6.32025       -3.80720        3.00768
H          8.37243       -2.76936        3.50932
