25

C          1.06651       -0.33038        0.06204
C          2.51592        0.12657        0.25807
C          2.85341        1.43062       -0.48710
C          4.30232        1.89278       -0.31899
Nb         4.86664        3.88845       -1.00716
C          3.71062        5.27768        0.30658
C          2.22462        5.23812        0.22038
O          1.46456        5.02420        1.15576
O          1.71738        5.43285       -1.03426
Cl         7.12529        4.11022       -0.25929
H          0.84847       -1.25643        0.61634
H          0.85020       -0.51992       -1.00110
H          0.35965        0.43989        0.40579
H          3.20647       -0.66701       -0.07763
H          2.71667        0.26677        1.33412
H          2.15442        2.21253       -0.13931
H          2.64257        1.30102       -1.56197
H          5.00289        1.15898       -0.75904
H          4.55617        1.96654        0.76359
H          3.86705        4.88184       -2.11688
H          5.58958        4.29767       -2.55074
H          4.22789        3.02809       -2.39214
H          4.09328        6.24716       -0.05606
H          4.02659        5.11473        1.34834
H          2.51161        5.32351       -1.64276
