13

P          1.13818       -0.44817        0.32627
O         -0.41889       -1.21259        0.71401
N          0.30378        1.23646        0.54543
C          2.90044        0.23496       -0.11739
H          0.76002       -0.37912       -1.10066
H          1.47866       -0.39552        1.76311
H          1.68053       -1.80562        0.18173
H         -0.97976       -0.43218        0.86102
H          0.43693        1.75897       -0.32781
H          0.83036        1.74590        1.26416
H          2.93201        1.33677       -0.16458
H          3.20725       -0.16048       -1.10081
H          3.62728       -0.09688        0.64401
