50

C          1.49253        5.07364        1.35057
O          2.82012        4.66444        1.09771
C          2.92166        3.25299        0.93115
C          4.36883        2.84417        0.74183
O          5.05046        2.88773        1.97679
C          6.41898        2.41219        1.86084
C          7.11986        2.44085        3.19199
Ta         9.23630        1.89965        3.38729
C         10.72115        1.40577        1.82556
C         10.37605        1.55304        0.46363
C         11.29933        1.35705       -0.56550
C         12.62688        1.00295       -0.28096
C         12.98869        0.84500        1.05617
C         12.05184        1.03428        2.08582
C         14.39407        0.46459        1.42212
F         15.20806        0.29225        0.33890
F         15.00175        1.40820        2.20893
F         14.45234       -0.70291        2.13451
C         10.90268        1.50754       -2.00517
F          9.62406        1.93897       -2.17407
F         11.70315        2.39841       -2.67653
F         11.00578        0.32914       -2.70367
C          9.76454        2.12251        5.51160
C          9.62312        3.55727        6.09685
C          8.25142        3.81840        6.69903
O          7.82913        3.22887        7.69227
N          7.50656        4.79863        6.08015
H          1.50229        6.16586        1.46239
H          1.09375        4.62143        2.27957
H          0.81241        4.80503        0.51694
H          2.33318        2.93856        0.04382
H          2.50798        2.73370        1.81792
H          4.84545        3.51187       -0.00634
H          4.38577        1.81591        0.32042
H          6.93947        3.05173        1.11905
H          6.40238        1.38218        1.45869
H          6.58968        1.79031        3.91533
H          7.07873        3.47226        3.60666
H          8.56620        0.51397        2.48808
H          9.89571        0.32078        3.88301
H         10.01994        3.44713        2.80115
H          9.35309        1.82983        0.19283
H         13.35106        0.85183       -1.07954
H         12.37587        0.87644        3.11804
H         10.84632        1.88996        5.43164
H          9.36602        1.38986        6.22889
H          9.86416        4.32111        5.33838
H         10.33982        3.70023        6.92472
H          7.75777        5.10708        5.14811
H          6.52558        4.85119        6.33501
