16

F          1.43773        0.00621        0.09769
As         3.18917       -0.51609       -0.46513
C          3.39475       -1.75337        1.29022
C          2.89007       -3.20385        1.20787
F          3.51323       -3.86716        0.19757
F          3.11889       -3.92855        2.35029
F          1.55968       -3.24867        0.97671
F          4.75048       -1.83661        1.60584
F          2.78976       -1.18068        2.38734
C          3.13910        0.76881       -2.14627
F          2.02334        1.53929       -2.31079
F          4.19956        1.65539       -2.12653
F          3.27593        0.05955       -3.32458
H          3.68051        0.66201        0.42814
H          4.62004       -0.96696       -0.92013
H          2.42951       -1.61144       -1.26497
