21

S          1.75656        0.10210        0.26268
In         4.01952       -0.84247        0.51657
S          5.04622        0.31037       -1.70818
O          4.04627        0.35410       -2.79580
O          5.78954        1.55109       -1.41464
C          6.49558       -0.83014       -2.40530
C          6.05717       -1.99637       -3.32382
F          5.61138       -1.54660       -4.51048
F          7.09718       -2.84354       -3.57231
F          5.07972       -2.71962       -2.73395
F          7.38261       -0.05988       -3.08608
F          7.12648       -1.36206       -1.31624
S          5.08544        0.50384        2.46049
O          4.18331        0.36527        3.62927
O          6.51841        0.20487        2.67172
C          5.00442        2.24836        1.96317
H          1.94869        0.24540       -1.07307
H          4.38238       -2.54149        0.51978
H          3.95423        2.50351        1.77528
H          5.60949        2.37558        1.05703
H          5.40895        2.82456        2.80613
