17

O          3.76070        2.88687       -0.39538
C          3.01822        1.76700       -0.23197
O          2.15695        1.72987        0.62889
C          3.28547        0.62048       -1.17858
Ga         5.02529       -0.38023       -1.04918
S          5.93257       -0.29085        1.17046
O          6.33324        1.00049        1.70211
O          5.17683       -1.20308        2.02139
F          7.38418       -1.09478        0.92087
S          6.38711        1.19822       -2.35418
O          6.65338        0.76538       -3.72107
O          5.84428        2.56012       -2.19296
F          7.89124        1.30646       -1.66300
H          4.48372        2.75694       -1.06286
H          3.27450        0.98457       -2.21821
H          2.48121       -0.11402       -1.05310
H          5.28532       -1.80579       -1.61297
