16

C          2.97956        1.39197        0.79439
S          2.77556       -0.09084       -0.20453
O          3.26516       -1.21085        0.58577
O          1.39504       -0.10579       -0.66737
C          3.82605        0.17349       -1.60200
S          3.12364        0.59671       -3.10930
O          2.13526        1.64075       -2.96814
O          4.10195        0.66033       -4.16522
F          2.23499       -0.72442       -3.48338
S          5.50689       -0.05278       -1.40666
O          6.30531        0.54015       -2.44853
O          5.86081        0.15401       -0.01843
F          5.73428       -1.66212       -1.62331
H          2.34999        1.25642        1.68283
H          2.64205        2.24765        0.19935
H          4.03683        1.47675        1.06665
