23

S          0.89427        0.17060       -0.62246
B          2.68022       -0.29889        0.08756
C          3.35690        0.96901        0.88735
C          2.56369        1.59957        2.04708
C          2.38856        0.62402        3.21866
C          3.18773        2.91692        2.53288
C          3.63746       -0.82941       -1.12894
N          4.88994       -1.48447       -0.63496
H          1.25174        1.17478       -1.46494
H          2.39880       -1.23496        0.84217
H          3.57622        1.77070        0.15107
H          4.35335        0.67408        1.28754
H          1.55587        1.82511        1.65269
H          3.36813        0.34787        3.64729
H          1.90602       -0.30104        2.87775
H          1.78035        1.06260        4.02748
H          4.20158        2.74823        2.93673
H          2.58872        3.39281        3.32913
H          3.28151        3.63669        1.70467
H          3.87510        0.02421       -1.80442
H          3.09290       -1.56288       -1.74842
H          5.16786       -1.03162        0.23830
H          5.66397       -1.32173       -1.28302
