22

N          1.79151        0.17697       -0.89925
C          2.24087       -0.02311        0.39862
O          1.96582       -1.06017        1.00379
C          3.07103        1.11571        0.95556
C          4.55443        1.04150        0.51335
Al         5.49953        2.80328        0.90065
C          7.44886        2.58451        0.30544
O          8.16013        3.89813        0.41092
C          9.43709        3.92570        0.09663
F         10.24451        3.12742        0.88391
F          9.72324        3.54143       -1.19956
F          9.90658        5.19862        0.23245
H          1.48619       -0.65377       -1.39536
H          2.24080        0.89620       -1.45576
H          3.00121        1.07430        2.05085
H          2.62904        2.07552        0.63292
H          4.60927        0.86763       -0.57792
H          5.02588        0.16357        0.98584
H          4.76070        3.94428       -0.02572
H          5.43753        3.16405        2.49812
H          7.54472        2.25738       -0.74344
H          8.00845        1.86863        0.93025
