30

N          1.91441       -0.97093       -0.09345
C          2.79892       -0.02446        0.63567
C          3.22741        1.19817       -0.14661
S          2.27621        2.58283        0.01249
O          1.25892        2.38160        1.04407
O          3.00063        3.84826       -0.04537
C          1.19429        2.70424       -1.56948
C          0.24806        3.93840       -1.67829
F         -0.60896        4.00839       -0.64052
F          0.93236        5.09626       -1.74969
F         -0.50642        3.84776       -2.81764
F          2.01323        2.74616       -2.66782
F          0.41034        1.59452       -1.67438
C          4.59217        1.26859       -0.67583
C          5.07959        0.14930       -1.69053
C          4.37841        0.10927       -3.09704
C          5.01234       -0.89507       -4.13426
F          5.07240       -2.15288       -3.64958
F          4.23626       -0.91678       -5.24438
F          6.25121       -0.52300       -4.51028
F          3.07951       -0.26761       -2.95657
F          4.42398        1.32932       -3.68994
F          6.42007        0.31165       -1.94041
F          4.92387       -1.09279       -1.13097
F          4.92227        2.44756       -1.28722
F          5.58003        1.10404        0.36674
H          1.71573       -1.76843        0.51687
H          2.40916       -1.35056       -0.90190
H          3.71744       -0.50787        1.01730
H          2.23042        0.31151        1.51364
