37

C          1.48106       -1.87787       -1.05942
C          2.89725       -1.62365       -0.51421
C          2.94363       -1.09541        0.92430
In         5.02275       -0.66543        1.71376
C          6.11753        0.27455       -0.08398
C          5.42908        1.51032       -0.65829
C          6.07942        2.19528       -1.86536
O          5.68758        3.22278       -2.38677
O          7.17774        1.55067       -2.35103
C          6.15111       -2.59033        2.10645
C          6.40718       -3.47216        0.87779
C          7.28442       -4.70727        1.15929
C          7.60507       -5.59372       -0.04911
N          6.40507       -6.29550       -0.54201
H          1.49237       -2.24561       -2.10017
H          0.88245       -0.95314       -1.03712
H          0.95188       -2.62343       -0.44485
H          3.40632       -0.91674       -1.19316
H          3.47446       -2.56153       -0.59085
H          2.46338       -1.82383        1.60187
H          2.34621       -0.16954        0.99909
H          5.05285        0.46702        3.09638
H          6.16613       -0.54592       -0.82233
H          7.13920        0.49915        0.26616
H          5.30965        2.29858        0.10316
H          4.39785        1.27875       -0.97652
H          7.28092        0.77174       -1.74658
H          5.59649       -3.16629        2.86854
H          7.11472       -2.31679        2.57311
H          6.90455       -2.88394        0.08411
H          5.45418       -3.80817        0.43827
H          6.80279       -5.32747        1.93944
H          8.23896       -4.36901        1.59860
H          8.43008       -6.28684        0.22042
H          7.97907       -4.96314       -0.87363
H          6.03210       -6.89226        0.19959
H          6.64765       -6.91570       -1.31610
