22

C          0.96335        0.12415        0.11310
C          2.47021        0.00847        0.13175
C          3.04627       -1.03983       -0.85146
C          4.57818       -1.08020       -0.90936
C          5.16502       -2.21480       -1.75722
C          6.69821       -2.23544       -1.78615
C          7.29145       -3.36063       -2.63990
H          0.62299        1.09054        0.53047
H          0.47783       -0.68483        0.69672
H          2.95921       -0.24964        1.12496
H          2.91088        0.98874       -0.14391
H          2.62064       -0.83408       -1.84982
H          2.66244       -2.03687       -0.56261
H          4.97513       -1.15802        0.12055
H          4.95041       -0.11282       -1.29848
H          4.78045       -2.14227       -2.79017
H          4.79763       -3.18352       -1.37160
H          7.07594       -2.32189       -0.75204
H          7.06553       -1.26254       -2.15821
H          6.96812       -4.34927       -2.27661
H          8.39384       -3.34821       -2.63092
H          6.96757       -3.27734       -3.68978
