28

N          2.20037       -2.09663       -2.06276
C          3.67965       -2.18810       -2.16182
C          4.34237       -1.25994       -1.13098
C          4.07186       -1.61292        0.29527
C          4.96589       -0.92992        1.29200
C          4.75488        0.61218        1.44396
C          5.41789        1.23430        2.68598
C          6.83773        1.70969        2.47861
C          7.52312        2.29698        3.75203
F          6.84003        3.37016        4.22649
F          7.58198        1.37589        4.74369
F          8.78974        2.70486        3.49644
F          7.67236        0.70657        2.03913
F          6.90156        2.71907        1.53373
O          2.68319       -1.27201        0.65858
H          1.76541       -2.64656       -2.80713
H          1.94202       -1.11678       -2.23403
H          4.04183       -1.92634       -3.18316
H          3.96760       -3.22719       -1.93544
H          3.99874       -0.20830       -1.43215
H          5.43273       -1.29365       -1.31607
H          6.01632       -1.13472        1.02756
H          4.81229       -1.36299        2.30552
H          3.67050        0.77905        1.52169
H          5.08324        1.13935        0.53484
H          5.43499        0.49082        3.50496
H          4.85949        2.10909        3.05925
H          2.16044       -1.77019        0.00529
