21

Br         3.17966        0.29043        1.70727
C          3.14277       -0.40100       -0.18668
S          1.55572       -1.00052       -0.53976
O          0.36450       -0.25080       -0.08658
O          1.56447       -1.38626       -1.96821
C          1.49337       -2.54408        0.40354
C          3.60802        0.68605       -1.13470
C          5.14042        0.84455       -1.15844
C          5.85700       -0.41922       -1.62198
N          7.32359       -0.22452       -1.65410
H          1.68304       -2.31348        1.45786
H          2.25685       -3.22140        0.00901
H          0.48269       -2.95122        0.27255
H          3.15845        1.68140       -0.93437
H          3.26452        0.38489       -2.13970
H          5.50498        1.11693       -0.15488
H          5.40312        1.68338       -1.83207
H          5.43772       -0.72876       -2.60089
H          5.62443       -1.22719       -0.91383
H          7.55576        0.48402       -2.35437
H          7.77773       -1.08485       -1.96665
