49

C          6.09510       -2.76781       -0.09834
S          5.47503       -1.18561        0.54795
C          5.71570       -0.10811       -0.94358
C          5.22357        1.31090       -0.75055
Ga         5.53915        2.34896       -2.50908
C          4.30689        3.97285       -2.75821
C          2.84172        3.70125       -2.41323
C          1.89344        4.80850       -2.92315
C          0.46438        4.68546       -2.44003
C         -0.52657        5.72720       -3.04427
F         -0.11425        6.99293       -2.78829
F         -0.61539        5.58441       -4.38924
F         -1.77237        5.58959       -2.53405
F         -0.07345        3.44942       -2.73023
F          0.38416        4.84232       -1.07045
C          7.49683        2.92851       -2.63579
C          7.86306        4.06595       -1.68299
C          9.32946        4.51868       -1.74437
C          9.63546        5.67933       -0.80038
N         11.03719        6.07519       -0.88408
C         11.54814        7.11299       -0.13016
N         10.90724        7.94604        0.62041
N         12.94877        7.22316       -0.23544
H          6.00982       -3.51604        0.70123
H          7.15086       -2.69144       -0.39825
H          5.50095       -3.10428       -0.96078
H          5.18676       -0.59655       -1.77714
H          6.79353       -0.13298       -1.17501
H          5.75019        1.79593        0.08822
H          4.14850        1.31229       -0.50689
H          5.18764        1.31055       -3.70893
H          4.39341        4.23416       -3.82908
H          4.66171        4.85446       -2.19464
H          2.72627        3.60227       -1.32221
H          2.51645        2.74078       -2.84455
H          1.88168        4.80888       -4.02430
H          2.26034        5.79661       -2.60431
H          7.70786        3.23111       -3.67729
H          8.13920        2.05141       -2.43624
H          7.63179        3.77127       -0.64270
H          7.22197        4.94241       -1.88987
H          9.58068        4.81352       -2.77741
H          9.98136        3.66101       -1.49496
H          9.36305        5.39734        0.23560
H          9.01208        6.54781       -1.07073
H         11.68389        5.31196       -1.06374
H          9.92443        7.67488        0.70878
H         13.29101        7.13899       -1.19045
H         13.25677        8.09240        0.19366
