38

F          0.56911        0.48379       -0.01528
C          1.92285        0.31805       -0.04112
C          2.54298        0.30378        1.33656
C          2.31991        1.58467        2.14660
Si         3.11609        1.50133        3.89186
C          2.60215       -0.02726        4.78404
C          1.48868       -0.06600        5.67365
C          1.05623       -1.23092        6.27188
C          1.69347       -2.50270        6.03557
C          2.81488       -2.45768        5.12474
C          3.23580       -1.27046        4.54296
N          1.22124       -3.58948        6.64839
C          1.87885       -4.78730        6.40460
O          1.25417       -5.81138        7.33600
C          1.40596       -7.07538        7.01293
F          0.76237       -7.45722        5.85025
F          2.71848       -7.47574        6.82999
F          0.89773       -7.86154        8.00391
C          4.99784        1.56704        3.63995
C          2.57362        3.08437        4.78343
F          2.15663       -0.84882       -0.71842
F          2.41715        1.32079       -0.83467
H          3.61486        0.10191        1.18478
H          2.12979       -0.56764        1.86742
H          1.23923        1.74753        2.28681
H          2.70901        2.46024        1.60076
H          0.95329        0.86122        5.90555
H          0.20570       -1.22392        6.95775
H          3.35203       -3.37802        4.88526
H          4.09872       -1.31465        3.86764
H          2.96159       -4.80833        6.66457
H          1.75512       -5.20650        5.37995
H          5.37559        0.66358        3.13982
H          5.50473        1.63561        4.61294
H          5.29234        2.43672        3.03364
H          1.47891        3.13547        4.87136
H          2.90928        3.97869        4.23793
H          2.99277        3.12077        5.79861
