59

C          4.42807        1.72645        3.03892
C          5.84522        2.04929        2.55640
C          6.21778        1.38207        1.21940
C          5.38691        1.84488        0.00100
Ta         5.59221        3.95920       -0.51887
S          3.79043        5.56256       -1.12046
O          2.57715        5.12640       -0.39165
O          4.17086        6.98928       -1.04397
C          3.19743        5.41368       -2.98653
C          2.27510        6.58948       -3.44856
C          1.46637        6.32355       -4.77226
F          2.27388        5.91219       -5.77257
F          0.49989        5.40181       -4.59682
F          0.86599        7.47352       -5.17212
F          1.35081        6.87825       -2.49349
F          3.02932        7.69792       -3.67972
F          4.26903        5.38425       -3.82751
F          2.50546        4.24566       -3.14870
C          7.75598        4.10256       -0.70236
C          8.59193        3.07554       -1.19890
C          9.98124        3.17279       -1.17494
C         10.59385        4.32538       -0.65391
C          9.79467        5.36524       -0.15720
C          8.40362        5.24477       -0.17870
C         12.09180        4.41897       -0.61381
C         12.84307        4.66019       -1.98069
C         12.51602        5.93744       -2.84413
C         12.83814        7.39689       -2.31692
C         14.32074        7.73893       -1.91101
C         14.62529        9.28354       -1.82619
F         13.71482        9.91888       -1.06625
F         15.84153        9.44736       -1.26297
F         14.65000        9.84941       -3.04509
F         14.58505        7.21540       -0.69007
F         15.18967        7.21762       -2.81641
F         12.49715        8.22893       -3.34533
F         12.03196        7.67700       -1.26524
F         13.19760        5.78865       -4.01768
F         11.18954        5.93813       -3.12619
F         14.19080        4.66145       -1.75226
F         12.56635        3.60137       -2.79583
F         12.52169        5.40548        0.24262
F         12.64174        3.23316       -0.15407
H          4.22975        2.17437        4.02326
H          4.28381        0.63771        3.12915
H          3.66538        2.10823        2.34601
H          6.57071        1.73201        3.32490
H          5.95388        3.14557        2.47055
H          6.12100        0.28524        1.34814
H          7.28927        1.56146        1.02800
H          4.31771        1.60580        0.13477
H          5.68959        1.27443       -0.89787
H          5.95744        4.54170       -2.13561
H          5.08068        5.04524        0.81307
H          4.51459        3.30027       -1.73276
H          8.14869        2.16661       -1.61540
H         10.59521        2.35203       -1.54853
H         10.25932        6.26006        0.25715
H          7.81076        6.07194        0.22446
