20

Br         1.74630       -1.54110        0.89273
Ga         3.49227       -0.04682        0.32114
C          4.33036       -0.91001       -1.38825
C          5.30542       -0.11836       -2.31227
C          6.68235        0.25508       -1.66166
C          7.49411        1.37904       -2.40162
F          7.65231        1.08728       -3.71011
F          6.90496        2.57736       -2.29139
F          8.72677        1.46434       -1.84239
F          6.48805        0.68996       -0.38653
F          7.48168       -0.84673       -1.62453
F          5.58764       -0.83791       -3.44715
F          4.68749        1.03391       -2.70421
F          5.02362       -2.06022       -1.00165
F          3.32849       -1.33539       -2.23744
S          2.41750        1.98304       -0.50734
O          3.34587        3.11132       -0.47679
O          1.52602        1.85912       -1.65356
F          1.37109        2.30687        0.77323
H          4.38456        0.38244        1.52005
