50

C          1.05806        1.41796       -1.92368
C          2.58901        1.39960       -1.95532
C          3.17353        1.36730       -0.53407
C          4.71956        1.32401       -0.47213
S          5.20760        0.79921        1.23691
O          4.24481       -0.10813        1.83996
O          6.63747        0.54099        1.30830
C          5.01760        2.38353        2.37478
C          5.01498        2.15386        3.92933
C          6.25189        1.48951        4.64942
C          7.66171        2.17593        4.53697
F          7.59854        3.47643        4.89366
F          8.50184        1.54896        5.39627
F          8.17740        2.08393        3.30871
F          5.94280        1.49855        5.98578
F          6.37876        0.20550        4.25567
F          4.84799        3.38981        4.51001
F          3.93916        1.40081        4.26526
F          5.99953        3.29647        2.11131
F          3.81717        2.98389        2.10468
C          5.21716        0.08142       -1.42768
O          5.56307        0.46217       -2.56647
O          5.10789       -1.04731       -0.91740
C          5.36363        2.66092       -0.87579
C          6.89565        2.72160       -0.91872
C          7.40324        3.98879       -1.61098
C          8.93607        4.03908       -1.63136
N          9.51665        5.14333       -2.38884
C          9.62680        6.42617       -1.87918
N          9.40136        6.84769       -0.68105
N         10.05832        7.34758       -2.85377
H          0.63696        1.44445       -2.93970
H          0.67517        2.29623       -1.38000
H          0.66266        0.52211       -1.42114
H          2.95549        2.28308       -2.50147
H          2.94478        0.52650       -2.52008
H          2.79171        0.47293       -0.02104
H          2.79987        2.24577        0.01801
H          4.96042        3.48941       -0.26819
H          5.00295        2.81713       -1.90436
H          7.25518        1.84019       -1.46903
H          7.31733        2.66275        0.09421
H          7.00974        4.89314       -1.11652
H          7.03290        4.01298       -2.65084
H          9.32333        3.10369       -2.06460
H          9.33376        4.08636       -0.60541
H          9.34722        5.10734       -3.39018
H          8.96098        6.12420       -0.10728
H         10.83737        7.01043       -3.41539
H         10.27622        8.23711       -2.41173
