63

C          4.29489        1.55294       -4.57479
O          5.06989        1.21978       -3.44194
C          5.55717       -0.11852       -3.50670
C          6.36941       -0.41092       -2.25162
O          6.79129       -1.75141       -2.33543
C          7.59796       -2.15794       -1.21766
C          7.99996       -3.61930       -1.38281
N          8.82627       -3.99940       -0.26916
C          9.26137       -5.25701       -0.24941
C          8.98055       -6.28537       -1.23149
C          9.48482       -7.57276       -1.11378
C         10.30987       -7.98682       -0.03587
C         10.59482       -6.97728        0.93651
C         10.10284       -5.69337        0.84411
Si        11.05697       -9.66689        0.05574
C         12.89041       -9.64841       -0.54147
C         13.03878       -8.93494       -1.88931
C         14.44977       -8.64830       -2.36715
C         15.42949       -9.84268       -2.66703
C         14.98844      -10.98921       -3.65326
C         14.68115      -10.69229       -5.17811
C         15.81877      -10.05528       -6.06265
C         15.59002      -10.21274       -7.61506
F         14.35922       -9.80282       -7.97097
F         16.49858       -9.45084       -8.25904
F         15.75840      -11.48710       -8.01228
F         15.90357       -8.73068       -5.80635
F         17.01326      -10.64182       -5.78287
F         14.38032      -11.91089       -5.72325
F         13.57813       -9.91230       -5.26413
F         15.97438      -11.93064       -3.62560
F         13.85432      -11.56522       -3.16498
F         16.60549       -9.33738       -3.15027
F         15.71198      -10.47749       -1.49279
F         14.40553       -7.90201       -3.53156
F         15.12911       -7.88332       -1.44548
C         11.12851      -10.36306        1.82178
C         10.13945      -10.92014       -1.04059
H          3.95297        2.58863       -4.44710
H          3.41138        0.89214       -4.67432
H          4.88418        1.48157       -5.51013
H          6.19097       -0.25670       -4.40431
H          4.71478       -0.83396       -3.57759
H          5.74329       -0.23654       -1.35197
H          7.23276        0.28363       -2.19086
H          7.03201       -2.02669       -0.27524
H          8.50384       -1.52454       -1.15551
H          8.51032       -3.72296       -2.36986
H          7.06519       -4.22271       -1.47095
H          8.34963       -6.04621       -2.08955
H          9.22202       -8.29629       -1.89503
H         11.22658       -7.22539        1.79800
H         10.33835       -4.94994        1.61034
H         13.27819      -10.67827       -0.58418
H         13.47950       -9.11515        0.22141
H         12.56019       -7.94212       -1.83265
H         12.51979       -9.47750       -2.69299
H         11.62134       -9.65536        2.50406
H         11.68415      -11.31250        1.86184
H         10.11468      -10.54131        2.20757
H         10.10226      -10.60091       -2.09224
H          9.10113      -11.04211       -0.70054
H         10.62840      -11.90553       -1.00654
