53

O          4.26670       -2.90125       -0.18932
C          3.28638       -2.13968       -0.28833
O          2.23520       -2.21074       -0.96529
C          3.28575       -0.82813        0.68174
C          2.94968       -1.27554        2.07916
C          3.77576       -2.20795        2.74450
C          3.43934       -2.68618        4.00551
C          2.26817       -2.26250        4.67707
C          1.44615       -1.34203        4.00303
C          1.77521       -0.86245        2.73126
Si         1.87535       -2.89938        6.39301
C          3.29815       -2.42635        7.58045
C          3.59928       -0.92299        7.58169
C          4.58175       -0.42761        8.63001
C          6.07650       -0.91509        8.58939
C          6.91285       -0.77153        7.26167
C          7.20541        0.64757        6.62190
C          7.97722        1.71262        7.48886
C          8.57747        2.90895        6.65616
F          7.64602        3.46578        5.86395
F          9.01891        3.84753        7.52337
F          9.61729        2.51232        5.90465
F          7.13323        2.24847        8.40324
F          9.01652        1.12394        8.13879
F          7.96523        0.39280        5.52054
F          6.03197        1.19094        6.21752
F          8.11643       -1.36356        7.49993
F          6.28074       -1.48378        6.29065
F          6.76791       -0.27677        9.57868
F          6.09197       -2.25029        8.87501
F          4.62045        0.95070        8.60710
F          4.14402       -0.77505        9.89367
C          0.26698       -2.14675        7.05129
C          1.73719       -4.78554        6.42585
Br         5.17829       -0.04505        0.75940
C          2.42037        0.29519        0.13113
H          4.66991       -2.55798        2.22803
H          4.10698       -3.41402        4.47841
H          0.52490       -0.98516        4.47222
H          1.10291       -0.15835        2.24070
H          4.18845       -2.99775        7.27806
H          3.03736       -2.76456        8.59592
H          2.68664       -0.34356        7.79755
H          3.94610       -0.59132        6.59313
H          0.30859       -1.04916        7.09766
H          0.05239       -2.51882        8.06387
H         -0.58331       -2.41638        6.40868
H          2.64961       -5.25384        6.03022
H          0.89807       -5.12086        5.80003
H          1.57602       -5.16212        7.44695
H          1.39471       -0.07481        0.00179
H          2.78390        0.58594       -0.86099
H          2.42694        1.17891        0.78659
