13

F          1.86719       -1.21306        0.79417
S          2.69766       -0.02275       -0.01019
O          2.88535       -0.60775       -1.33286
O          1.81986        1.12101        0.12396
N          4.00212        0.18136        0.86436
C          5.08688       -0.59857        0.55416
O          5.07745       -1.97322        1.45276
C          6.21056       -2.59797        1.54265
F          7.23147       -1.87768        2.16787
F          6.08183       -3.75373        2.27095
F          6.77427       -2.97736        0.32718
H          6.02446       -0.13717        0.88782
H          5.14384       -1.01416       -0.46265
