26

N          2.27558       -1.44422        0.15606
C          2.56282        0.00787        0.25289
Al         3.30717        0.87431       -1.40653
C          2.06852        0.68097       -3.10033
C          0.70513        1.41580       -3.09631
C         -0.27292        1.23949       -4.30668
F          0.29854        1.60730       -5.47332
F         -0.70245       -0.03275       -4.42869
F         -1.37642        2.02275       -4.13340
F         -0.00282        1.02225       -1.98852
F          0.93237        2.76479       -2.99340
F          2.75107        1.15943       -4.23785
F          1.78355       -0.66101       -3.39309
C          5.06379        0.02858       -2.01825
O          5.03350       -1.46399       -1.90885
C          6.13367       -2.11150       -2.24881
F          7.23973       -1.79517       -1.48491
F          5.93003       -3.44871       -2.09738
F          6.53459       -1.91674       -3.55028
H          2.22096       -1.87834        1.08022
H          3.02718       -1.92373       -0.33944
H          3.27610        0.25566        1.07161
H          1.62590        0.52989        0.52044
H          3.60290        2.46290       -1.19677
H          5.90292        0.37498       -1.39250
H          5.30808        0.26965       -3.06521
