31

C          1.58857       -1.30417       -0.74748
Ga         2.70302        0.16440        0.08206
C          3.80901        1.09329       -1.36184
C          4.45801        0.35706       -2.36438
C          5.23900        0.97099       -3.35728
C          5.39617        2.35643       -3.37797
C          4.75780        3.11330       -2.38866
C          3.98195        2.49022       -1.40266
C          4.89535        4.60795       -2.44386
F          6.18841        5.00851       -2.66198
F          4.16417        5.15870       -3.47091
F          4.48346        5.23080       -1.30933
C          5.93623        0.11842       -4.37784
F          7.00373       -0.55988       -3.84920
F          5.11594       -0.83576       -4.91081
F          6.42936        0.83509       -5.43167
C          4.06088       -0.72680        1.33000
O          4.91524        0.31077        1.97034
C          5.81947       -0.10372        2.83712
F          5.30131       -0.76592        3.93263
F          6.76163       -0.96651        2.31756
F          6.50032        0.96970        3.32153
H          0.86031       -0.88154       -1.45577
H          1.02488       -1.85210        0.02278
H          2.20138       -2.03646       -1.29565
H          1.86501        1.28090        0.86460
H          4.35530       -0.73175       -2.38537
H          5.99841        2.83762       -4.14701
H          3.49925        3.11004       -0.64379
H          4.73177       -1.41282        0.78909
H          3.56685       -1.28876        2.13805
