35

C          1.61375        1.24591        0.88077
C          2.92001        0.47517        0.66309
C          3.24461        0.24694       -0.82138
C          4.52511       -0.51645       -1.09684
Sb         4.86780       -0.77251       -3.32767
C          4.99578       -0.92670       -5.59944
C          6.10765       -1.75370       -6.20278
N          6.04347       -1.78361       -7.69451
C          6.96965       -1.67189       -3.00101
C          7.18722       -2.35115       -1.66788
N          8.51069       -3.04386       -1.59748
H          1.39192        1.39848        1.94844
H          0.76270        0.70844        0.43418
H          1.65854        2.23651        0.40203
H          2.86532       -0.50174        1.17438
H          3.75605        1.01758        1.13803
H          3.28766        1.22866       -1.33018
H          2.39440       -0.28117       -1.29215
H          4.50205       -1.52539       -0.65492
H          5.40887        0.02134       -0.71689
H          4.21441       -2.48688       -3.26412
H          5.59723        0.89766       -3.38061
H          3.20827       -0.10329       -3.62326
H          5.03283        0.11645       -5.94941
H          4.00911       -1.35247       -5.85051
H          6.07256       -2.77487       -5.77321
H          7.09010       -1.33077       -5.93495
H          5.08992       -2.04215       -7.96155
H          6.64616       -2.53295       -8.05008
H          7.69789       -0.86301       -3.16895
H          7.07345       -2.41307       -3.81079
H          6.35021       -3.05356       -1.47986
H          7.17406       -1.61362       -0.84923
H          8.59699       -3.63779       -2.42671
H          8.52313       -3.68326       -0.79571
