67

C          0.69786       -0.06785       -0.50326
C          2.22302       -0.17458       -0.59057
C          2.87608        1.00189       -1.32426
C          4.40236        0.90357       -1.41565
C          5.05225        2.07287       -2.16210
C          6.57834        1.97609       -2.25825
C          7.21429        3.13472       -3.03560
C          8.74288        3.04760       -3.15869
Si         9.49735        4.37400       -4.29910
C          8.63116        4.28305       -5.95048
C          7.70266        5.24700       -6.40157
C          6.99336        5.07957       -7.58903
C          7.14471        3.94244       -8.41666
C          8.09182        2.99131       -7.96047
C          8.80317        3.15119       -6.76881
Ta         6.06341        3.50944      -10.28459
C          5.78430        4.54560      -12.29240
C          7.01613        4.75383      -13.21859
F          7.78165        3.61991      -13.25710
F          6.68787        5.03550      -14.51733
F          7.81363        5.76388      -12.80076
F          4.96409        3.68120      -13.07351
F          5.14041        5.78379      -12.30504
C          6.73348        1.53730      -10.85329
C          6.16398        0.72548      -12.01925
C          6.72625       -0.69832      -12.08164
N          6.19628       -1.43917      -13.24111
C          9.29160        6.08041       -3.50180
C         11.35018        4.00929       -4.46356
H          0.25962       -0.92545        0.02723
H          0.24367       -0.02856       -1.50479
H          0.39215        0.84503        0.03035
H          2.49761       -1.11457       -1.09893
H          2.64640       -0.24829        0.42608
H          2.60028        1.94451       -0.81841
H          2.45475        1.07473       -2.34236
H          4.67610       -0.04275       -1.91532
H          4.82512        0.83848       -0.39673
H          4.77764        3.02065       -1.66532
H          4.63050        2.13541       -3.18018
H          6.85335        1.02464       -2.74744
H          7.01074        1.92938       -1.24213
H          6.93286        4.08718       -2.55219
H          6.77325        3.17254       -4.04582
H          9.02256        2.06662       -3.58336
H          9.21879        3.09548       -2.16274
H          7.52710        6.15108       -5.80990
H          6.29078        5.86588       -7.88552
H          8.29233        2.08570       -8.54250
H          9.50929        2.36560       -6.47548
H          4.38277        3.96435      -10.60042
H          4.93934        3.35536       -8.91554
H          7.27547        4.78458      -10.47175
H          6.59685        0.98906       -9.89365
H          7.82954        1.67398      -10.97173
H          6.37028        1.23168      -12.97340
H          5.06309        0.66759      -11.93923
H          6.53093       -1.19797      -11.10973
H          7.82256       -0.64575      -12.19133
H          5.17605       -1.47582      -13.18655
H          6.51822       -2.40819      -13.21929
H          8.23495        6.31878       -3.31718
H          9.70372        6.86694       -4.14964
H          9.82035        6.12058       -2.53825
H         11.51797        3.03847       -4.95125
H         11.84028        3.98220       -3.47898
H         11.84505        4.77737       -5.07456
