20

F          1.80984        0.75055        0.68274
C          1.75983       -0.26520       -0.24296
B          3.07252       -0.27949       -1.20720
S          3.42174        1.46187       -2.01101
O          4.08307        1.37218       -3.30957
O          2.29922        2.38021       -1.83917
C          4.77881        2.24913       -0.84812
C          6.25801        1.88182       -1.16678
F          6.43659        0.54810       -1.19310
F          6.65301        2.40203       -2.34122
F          7.07762        2.38756       -0.19858
F          4.65819        3.59826       -0.97359
F          4.53184        1.91437        0.44713
S          2.98471       -1.63857       -2.56239
O          4.22488       -1.78435       -3.29320
O          2.31412       -2.82368       -2.06406
F          1.92572       -1.00029       -3.64823
F          1.65786       -1.41824        0.49701
F          0.56102       -0.12748       -0.88731
H          4.05933       -0.57771       -0.58480
