34

N          1.04684        3.92876        3.45420
C          2.52479        3.91329        3.44353
C          3.06542        3.46082        2.08964
C          4.59550        3.42916        2.04454
C          5.15817        2.96919        0.69601
C          6.70095        2.93120        0.62108
C          7.21935        1.98901        1.80447
O          7.88469        2.56265        2.71376
O          6.88910        0.77821        1.71193
C          7.11736        2.32007       -0.73628
C          8.63461        2.18842       -0.87881
C          9.12034        1.67167       -2.23081
N          8.59343        0.32173       -2.52464
N          7.29967        4.27578        0.76858
H          0.70777        4.14618        4.39302
H          0.70458        2.98805        3.24501
H          2.96056        3.26882        4.23224
H          2.86996        4.94011        3.64981
H          2.66600        4.12591        1.30476
H          2.67381        2.45059        1.86761
H          4.97619        2.75765        2.83092
H          4.98408        4.43308        2.29118
H          4.77782        3.62884       -0.11049
H          4.78996        1.95272        0.48427
H          6.73027        2.96520       -1.54877
H          6.64100        1.33447       -0.83354
H          9.00887        1.51709       -0.08565
H          9.08593        3.17533       -0.69015
H         10.22929        1.70218       -2.23633
H          8.78049        2.35128       -3.03364
H          8.60183       -0.23081       -1.66406
H          9.19964       -0.16182       -3.18810
H          7.74329        4.24293        1.70071
H          6.56898        4.98881        0.80113
