36

C          0.77661        0.33774        0.38168
C          2.18276       -0.16321        0.08847
Sb         3.78220        0.90095        1.27923
C          3.19685       -0.41472        3.16199
C          2.94076        0.41400        4.38418
O          2.29042       -0.23966        5.53828
C          3.07898       -1.24178        6.13154
C          2.51011       -1.61842        7.48746
O          1.30992       -2.37611        7.34505
C          0.70970       -2.65529        8.58913
C          5.44826        1.90542        2.44565
C          6.46219        0.92555        3.01991
H         -0.00245       -0.17362       -0.21430
H          0.68816        1.41785        0.18182
H          0.51722        0.19614        1.44356
H          2.46765       -0.01242       -0.96423
H          2.30226       -1.22921        0.33500
H          4.17978        1.92549       -0.17255
H          2.57048        2.13547        1.85681
H          4.97172       -0.38863        0.77456
H          4.01867       -1.13657        3.28068
H          2.28748       -0.94762        2.84454
H          2.24661        1.23798        4.15756
H          3.88155        0.86008        4.76470
H          4.11852       -0.87983        6.29758
H          3.15043       -2.14656        5.49527
H          2.30397       -0.69758        8.06916
H          3.26180       -2.21664        8.04599
H         -0.21558       -3.21358        8.39122
H          0.45666       -1.72825        9.14203
H          1.36655       -3.27137        9.23847
H          4.96008        2.51049        3.22493
H          5.90788        2.58730        1.71351
H          6.03346        0.34341        3.85133
H          7.37377        1.41660        3.40701
H          6.78047        0.19795        2.25371
