28

Cl         1.80060        2.26369        0.78285
Sb         3.13950        0.10071        0.28070
C          4.13300       -2.05583        0.31401
C          5.28427       -2.54854       -0.59627
C          6.69596       -1.92481       -0.34193
F          6.66502       -0.57990       -0.37048
F          7.20972       -2.31553        0.84122
F          7.55250       -2.33966       -1.31410
F          5.46957       -3.91260       -0.49345
F          4.95796       -2.29416       -1.90310
F          4.56064       -2.29581        1.61964
F          3.10312       -2.96265        0.08393
C          3.98429        0.97543       -1.66500
C          2.94826        0.91662       -2.78516
C          2.00905        2.12255       -2.90300
C          4.63476        2.31785       -1.38073
H          4.56376        0.74974        1.14688
H          2.43399       -0.48828        1.77074
H          1.79926       -0.59756       -0.69150
H          4.76439        0.22820       -1.87389
H          2.33126        0.00698       -2.63843
H          3.46514        0.76550       -3.75211
H          1.48909        2.31510       -1.95473
H          1.25353        1.94623       -3.68405
H          2.55629        3.03824       -3.17324
H          3.88955        3.09413       -1.15950
H          5.25556        2.66428       -2.22774
H          5.29631        2.24639       -0.50131
