24

O          3.11116        0.40057        1.26964
C          2.57127       -0.41402        0.30988
O          1.56842       -1.05041        0.56169
C          3.29876       -0.43456       -1.02658
C          4.65484        0.27848       -1.10291
B          5.45161        0.12791       -2.51454
S          4.69420        1.31451       -3.84841
O          4.37822        2.64972       -3.34986
O          5.32994        1.21102       -5.15539
F          3.18114        0.63231       -4.09401
C          7.00888        0.60105       -2.43792
O          7.68570       -0.32949       -1.49357
C          8.97556       -0.12947       -1.27792
F          9.27852        1.10796       -0.75550
F          9.42061       -1.05188       -0.38475
F          9.76298       -0.24839       -2.39917
H          3.91071        0.80499        0.87391
H          2.59506       -0.01611       -1.76377
H          3.40089       -1.49395       -1.30737
H          5.33328       -0.14711       -0.34020
H          4.53912        1.35671       -0.87574
H          5.34542       -0.97242       -3.02583
H          7.14600        1.61858       -2.03801
H          7.52804        0.52646       -3.40363
