39

C          0.74604        2.11216       -1.33861
C          2.19493        1.62694       -1.50572
C          3.00867        1.54619       -0.23882
C          2.49159        0.55897        0.78712
C          2.51316       -0.96195        0.38420
C          1.99539       -1.84346        1.50045
S          2.02822       -3.68911        1.21388
C          4.48228        1.39022       -0.51178
C          5.21010        2.68657       -0.95467
C          5.01060        3.86685        0.00485
C          5.56578        3.60462        1.40275
N          5.37507        4.77681        2.24910
C          5.83527        4.86532        3.53740
N          6.45547        3.96665        4.23137
N          5.58097        6.12552        4.12791
H          0.21909        2.16921       -2.30767
H          0.72921        3.10509       -0.86086
H          0.16574        1.43265       -0.69415
H          2.69494        2.31351       -2.21193
H          2.14441        0.64673       -2.08171
H          1.45250        0.79919        1.08329
H          3.08687        0.64653        1.71745
H          3.54102       -1.25745        0.11952
H          1.90085       -1.10963       -0.52229
H          0.96497       -1.57463        1.77541
H          2.61272       -1.73101        2.40630
H          1.34613       -3.65616        0.04465
H          4.73755        0.61925       -1.30404
H          4.98416        1.01199        0.40024
H          4.83432        2.99013       -1.94647
H          6.29021        2.48302       -1.08859
H          3.92286        4.02828        0.09581
H          5.48893        4.77509       -0.41000
H          6.64047        3.33844        1.34550
H          5.02790        2.75180        1.84597
H          5.19968        5.65093        1.76485
H          6.66720        3.15055        3.65080
H          4.62168        6.43700        3.98417
H          5.79397        6.07018        5.12157
