31

C          1.52087       -0.03976        0.93570
C          2.52661        0.17410       -0.19954
C          3.39011       -1.05673       -0.49201
C          4.38766       -0.83956       -1.65390
C          5.23059       -2.02440       -2.07092
S          4.59322       -2.98678       -3.24028
O          3.68330       -2.29020       -4.15168
O          5.51127       -3.99257       -3.77722
F          3.39793       -4.08182       -2.49716
C          6.43597       -2.41058       -1.22094
C          6.20714       -3.44896       -0.08124
C          6.00217       -4.90378       -0.51538
C          7.70524       -2.75066       -2.02839
H          0.91061        0.85781        1.12281
H          2.03311       -0.29784        1.87587
H          0.83510       -0.86821        0.70114
H          3.17996        1.03141        0.04439
H          1.98721        0.45858       -1.11964
H          2.74545       -1.91437       -0.74544
H          3.93767       -1.34021        0.42439
H          5.06933       -0.01159       -1.37026
H          3.81663       -0.48359       -2.52622
H          6.66590       -1.46865       -0.68421
H          5.33259       -3.12689        0.50592
H          7.07680       -3.39451        0.60312
H          5.12311       -5.00334       -1.16477
H          5.85577       -5.55032        0.36470
H          6.87102       -5.28888       -1.06886
H          7.55332       -3.63496       -2.65832
H          8.55997       -2.93483       -1.35458
H          7.96141       -1.91583       -2.69600
