24

O          1.42257       -0.29098       -0.10769
C          2.63072       -0.02372        0.00352
O          3.38291        0.70965       -0.69148
C          3.35486       -0.77261        1.26159
C          2.90757       -0.13197        2.60043
C          1.39328        0.03114        3.08366
C          0.45556       -1.22098        3.24365
F          1.11012       -2.25182        3.83003
F         -0.58557       -0.88786        4.04986
F         -0.05815       -1.64321        2.08274
F          1.48297        0.55363        4.35749
F          0.73689        0.93790        2.32872
F          3.51747       -0.80598        3.65366
F          3.34650        1.16496        2.65255
C          2.99223       -2.25968        1.22667
O          3.50385       -2.80247       -0.02804
C          3.39311       -4.11516       -0.18669
F          4.08559       -4.85047        0.74998
F          2.10327       -4.58565       -0.12759
F          3.88804       -4.44847       -1.39936
S          5.16888       -0.52907        1.12629
H          1.90463       -2.38761        1.21321
H          3.45092       -2.80788        2.06061
H          4.79277        0.31348        0.04580
