21

O          4.56293       -1.67379       -0.92110
Ta         3.37480       -0.25367       -0.33949
C          3.25077        2.01931       -0.58891
F          2.69864        2.58848       -1.70817
F          2.52954        2.61254        0.46738
F          4.51646        2.70181       -0.51190
C          4.43820        0.40941        1.48272
C          5.95248        0.75515        1.41215
C          6.34916        1.80627        2.44139
O          6.94215        1.55815        3.49488
N          5.98384        3.08334        2.09763
H          4.84541       -1.77061       -1.83840
H          2.03276       -1.24559        0.32478
H          3.56368        0.19494       -2.05123
H          1.79410        0.23165       -1.00742
H          4.30563       -0.49681        2.11246
H          3.87987        1.21085        1.99033
H          6.22430        1.13885        0.41574
H          6.56130       -0.13694        1.60330
H          5.36583        3.23270        1.30283
H          6.04077        3.79504        2.81662
