35

N          0.83441       -0.21316        0.30051
C          2.30370       -0.16976        0.16740
C          2.93962        0.60198        1.32048
C          4.46359        0.69845        1.20434
C          5.08285        1.50977        2.34667
C          6.62147        1.54775        2.38084
C          7.29668        0.10125        2.74061
O          6.49843       -0.83262        2.96316
O          8.55305        0.13098        2.73707
C          7.24878        1.91291        1.04881
O          6.75332        3.25996        0.60846
C          7.27675        3.74777       -0.50416
F          7.07543        2.95830       -1.61324
F          6.70922        4.95371       -0.77117
F          8.63488        3.95101       -0.44735
C          7.12297        2.55825        3.40908
O          6.56742        2.19816        4.72492
C          6.84292        3.01912        5.72670
F          6.35014        4.29808        5.55494
F          6.28241        2.53367        6.85984
F          8.18244        3.18417        5.97271
H          0.42191       -0.68235       -0.50750
H          0.46780        0.74136        0.29142
H          2.64234        0.27641       -0.79021
H          2.67174       -1.20848        0.17886
H          2.66426        0.11779        2.27129
H          2.50491        1.61954        1.35136
H          4.71395        1.15353        0.22978
H          4.90244       -0.31079        1.22748
H          4.75347        1.07094        3.29912
H          4.69079        2.54377        2.30830
H          6.96784        1.19802        0.26556
H          8.34018        1.95737        1.14114
H          6.79157        3.58304        3.18102
H          8.21825        2.49533        3.47154
