25

C          8.08967       -0.66565       -0.48303
S          7.16467        0.32551        0.73211
C          6.14687        1.25832       -0.47841
C          5.12888        2.17949        0.18169
Ta         5.70341        3.70281        1.69855
C          3.95499        5.02385        1.31775
C          2.55995        4.78749        1.89940
N          2.53885        5.17361        3.32298
F          6.97384        4.73339        0.66808
H          8.79869       -1.29511        0.07095
H          8.65756       -0.02400       -1.17417
H          7.42106       -1.31642       -1.06858
H          5.68162        0.50371       -1.14224
H          6.84392        1.85017       -1.09555
H          4.31127        1.58857        0.63338
H          4.67390        2.78350       -0.63200
H          6.96130        3.77660        2.96198
H          5.87274        2.11787        2.52219
H          4.94250        3.87479        3.32830
H          3.89415        5.01666        0.20801
H          4.27805        6.04916        1.58941
H          2.27100        3.72595        1.73653
H          1.79466        5.39313        1.37347
H          3.38591        4.75029        3.73058
H          1.74160        4.73830        3.79155
