70

N          2.14963        4.55646       -3.05090
C          3.52973        4.84908       -2.62094
C          4.25553        3.58249       -2.16816
C          4.44237        2.51215       -3.26692
C          5.27573        1.32763       -2.80571
C          4.59674        0.14320       -2.35394
C          3.31168       -0.37941       -3.08229
C          3.41460       -0.69403       -4.62757
C          4.53251       -1.67336       -5.13361
F          4.51150       -2.84208       -4.46413
F          4.28839       -1.94747       -6.44482
F          5.75487       -1.13669       -5.05276
F          2.22160       -1.26998       -4.99201
F          3.54316        0.45338       -5.34391
F          2.91422       -1.55686       -2.50207
F          2.25549        0.48596       -2.96325
F          5.39095       -0.99992       -2.28120
F          4.06841        0.21317       -0.92778
C          6.67782        1.53354       -2.57437
C          7.54219        0.67394       -1.81283
C          8.89791        0.92058       -1.66443
C          9.54746        2.04373       -2.23590
C          8.70166        2.91934       -2.95926
C          7.34246        2.69050       -3.11101
Si        11.37539        2.31544       -2.12840
C         12.20241        1.93725       -3.81877
C         11.77177        0.58157       -4.39477
C         12.42826        0.26963       -5.72571
C         12.12597       -1.13518       -6.36153
C         10.64675       -1.55634       -6.70590
C          9.78431       -0.75505       -7.76675
C         10.35093       -0.60983       -9.22894
C          9.27673       -0.18094      -10.29969
F          8.59801        0.90759       -9.89942
F          9.92053        0.11486      -11.45103
F          8.40814       -1.17432      -10.55208
F         11.32461        0.33206       -9.24412
F         10.87370       -1.79292       -9.64895
F          8.60581       -1.43543       -7.85419
F          9.52832        0.48093       -7.27830
F         10.70968       -2.84857       -7.13706
F          9.92123       -1.53398       -5.55749
F         12.85955       -1.27021       -7.50555
F         12.56331       -2.08217       -5.47558
F         12.12430        1.21860       -6.67401
F         13.80657        0.28231       -5.59863
C         11.82773        4.11320       -1.72690
C         12.17193        1.18500       -0.83013
H          1.63186        5.42172       -3.20819
H          1.66175        4.05665       -2.30440
H          3.58059        5.59841       -1.80381
H          4.05968        5.28704       -3.48501
H          3.70879        3.12740       -1.32380
H          5.24054        3.87019       -1.76818
H          4.90744        2.99170       -4.14751
H          3.45176        2.21040       -3.61493
H          7.12709       -0.19609       -1.31209
H          9.47585        0.21339       -1.06053
H          9.11888        3.82157       -3.42120
H          6.76822        3.42049       -3.68151
H         13.29809        1.98232       -3.71206
H         11.91784        2.73928       -4.51835
H         10.68034        0.56112       -4.52563
H         12.02282       -0.24356       -3.71105
H         11.35650        4.80592       -2.43904
H         12.91513        4.27791       -1.76582
H         11.47484        4.38404       -0.72172
H         12.00823        0.12024       -1.04916
H         11.75061        1.38274        0.16578
H         13.25778        1.35390       -0.77908
