58

C          3.90464        1.73086        2.15178
C          4.21874        0.27582        1.78847
C          4.02827       -0.03283        0.29464
C          4.28375       -1.47678       -0.10600
Sb         4.04299       -1.80856       -2.32937
C          3.78794       -2.12514       -4.57362
C          4.10925       -1.10213       -5.47585
C          3.99654       -1.27696       -6.85593
C          3.54539       -2.50733       -7.36443
C          3.22261       -3.54727       -6.47814
C          3.34950       -3.34594       -5.10078
C          3.39132       -2.68392       -8.84493
C          4.69591       -2.95588       -9.69016
C          5.54626       -4.25900       -9.43816
C          4.96608       -5.70404       -9.74479
C          4.41838       -6.00615      -11.18966
C          4.24822       -7.54047      -11.51101
F          3.53059       -8.16451      -10.55919
F          3.59073       -7.65782      -12.68558
F          5.43668       -8.15691      -11.63658
F          3.19871       -5.43790      -11.34005
F          5.26414       -5.50449      -12.12836
F          6.01025       -6.55904       -9.52407
F          3.99240       -5.99608       -8.85092
F          6.67166       -4.12976      -10.20327
F          5.92471       -4.29024       -8.13774
F          4.37783       -2.94635      -11.02230
F          5.55537       -1.92027       -9.46964
F          2.51537       -3.70203       -9.15720
F          2.87665       -1.53551       -9.42492
C          6.31403       -1.98021       -2.63675
C          6.83622       -3.40818       -2.65815
C          8.36215       -3.52134       -2.73356
N          8.79891       -4.93464       -2.77020
H          4.06489        1.93515        3.22157
H          2.85716        1.97661        1.91755
H          4.53736        2.42667        1.57919
H          3.58102       -0.40091        2.38304
H          5.25853        0.03855        2.07361
H          4.68681        0.63688       -0.28878
H          2.99867        0.24760        0.00308
H          3.56750       -2.16563        0.36978
H          5.30446       -1.79782        0.15944
H          3.93304       -3.60828       -2.12657
H          2.24845       -1.65890       -2.14640
H          4.19972       -0.03476       -2.68522
H          4.44881       -0.13625       -5.08324
H          4.24138       -0.46295       -7.54088
H          2.86533       -4.50217       -6.86700
H          3.10029       -4.16433       -4.41540
H          6.76343       -1.39559       -1.81615
H          6.52678       -1.45838       -3.58313
H          6.40341       -3.96176       -3.50887
H          6.49321       -3.94635       -1.75250
H          8.79962       -2.95215       -1.88755
H          8.71979       -3.03751       -3.65771
H          8.42292       -5.42032       -1.95253
H          9.81609       -4.99313       -2.69087
