69

N          8.29232        0.67776        1.55852
C          7.25043        0.82146        0.49952
C          6.37562       -0.41616        0.39017
In         4.86869       -0.34483       -1.26497
C          3.16649        1.18286       -1.13052
C          2.47146        1.39469       -2.34142
C          1.37315        2.25404       -2.46171
C          0.89055        2.93335       -1.33979
C          1.51766        2.72958       -0.11154
C          2.64225        1.88122       -0.01640
C          3.25703        1.77699        1.35073
O          4.37824        2.09348        1.66840
O          2.38375        1.31835        2.32415
C          6.02424        0.29410       -3.11217
C          7.15076       -0.45552       -3.51365
C          7.90725       -0.13583       -4.64589
C          7.57630        0.96433       -5.46491
C          6.47015        1.73765       -5.06107
C          5.72893        1.41281       -3.91648
Si         8.54849        1.31412       -7.03279
C          8.56530       -0.25917       -8.11319
C          9.32275       -0.16637       -9.44601
C          9.31601       -1.46714      -10.26098
C         10.06313       -1.35491      -11.59347
C         10.07033       -2.64422      -12.42088
C         10.81548       -2.50655      -13.75200
C         10.83050       -3.78425      -14.59646
C         11.57755       -3.61862      -15.92216
C          7.76528        2.73167       -8.01869
C         10.34464        1.79233       -6.64508
H          8.88749        1.51191        1.56830
H          8.90780       -0.09969        1.30430
H          7.69733        1.05036       -0.48831
H          6.63293        1.68636        0.78239
H          5.87636       -0.61045        1.35145
H          7.00048       -1.30112        0.16794
H          4.06935       -1.90959       -1.56240
H          2.80482        0.86491       -3.23914
H          0.89124        2.39436       -3.43313
H          0.03962        3.61343       -1.41738
H          1.15687        3.25647        0.77737
H          1.56349        1.06014        1.86671
H          7.45521       -1.32871       -2.92575
H          8.76904       -0.76503       -4.89928
H          6.17279        2.61063       -5.65231
H          4.88776        2.06210       -3.65221
H          7.51431       -0.54275       -8.29680
H          8.98458       -1.07755       -7.50181
H         10.37129        0.12759       -9.26281
H          8.89113        0.63891      -10.06635
H          8.27135       -1.77150      -10.44906
H          9.76161       -2.27591       -9.65534
H         11.10535       -1.04374      -11.40036
H          9.61354       -0.54366      -12.19355
H          9.03011       -2.95994      -12.61541
H         10.52685       -3.45681      -11.82850
H         11.85568       -2.19076      -13.55564
H         10.35971       -1.69025      -14.34044
H          9.79252       -4.10124      -14.79422
H         11.28975       -4.60011      -14.01290
H         11.11901       -2.83190      -16.54018
H         11.57532       -4.54767      -16.50990
H         12.62699       -3.33356      -15.75316
H          6.72567        2.50442       -8.29492
H          8.32732        2.92094       -8.94526
H          7.76015        3.66535       -7.43816
H         10.84455        1.01050       -6.05531
H         10.37696        2.72036       -6.05643
H         10.93083        1.95333       -7.56252
