38

C          2.34873       -1.13349       -1.48874
C          2.28080       -0.19821       -0.27491
C          2.77466       -0.87280        1.01663
S          2.76591        0.40125        2.35254
O          3.68901        0.02876        3.42718
O          2.84296        1.75285        1.79788
C          1.04178        0.38487        3.21292
C          0.86573        1.39282        4.42008
C          0.95219        2.96142        4.24482
C          0.04507        3.66201        3.16975
F         -1.24424        3.29227        3.31275
F          0.11957        5.00196        3.36817
F          0.44027        3.40575        1.92030
F          0.55956        3.47814        5.45403
F          2.23000        3.34031        4.03240
F         -0.38594        1.14176        4.91845
F          1.76740        1.08394        5.38630
F          0.07970        0.67244        2.29961
F          0.81462       -0.83221        3.74427
C          1.78156       -2.15115        1.44234
O          0.62080       -2.03464        1.00387
O          2.35422       -3.03703        2.10019
C          4.22881       -1.37973        0.97369
C          5.32665       -0.35825        0.56937
C          6.65421       -0.61063        1.27788
O          7.68747       -0.94095        0.69210
N          6.60676       -0.41450        2.62983
H          1.94193       -0.62122       -2.37273
H          1.75187       -2.03710       -1.31154
H          3.38018       -1.43118       -1.72758
H          1.23438        0.09622       -0.12287
H          2.86037        0.71591       -0.47476
H          4.22898       -2.22100        0.26682
H          4.43944       -1.83689        1.94631
H          5.01082        0.66861        0.81198
H          5.52336       -0.38882       -0.50933
H          5.71634       -0.25961        3.10236
H          7.41847       -0.67959        3.17390
