20

N          1.58541        0.90378        0.98532
C          2.66290       -0.06895        0.72467
N          4.00148        0.50522        0.61993
S          4.74334        0.45036       -0.73886
O          6.17703        0.67940       -0.58061
O          4.31774       -0.58611       -1.69395
C          4.23553        2.06073       -1.68258
C          4.69165        2.23143       -3.17897
C          3.68201        1.75412       -4.28742
F          2.61520        2.58501       -4.36539
F          4.31105        1.80247       -5.49527
F          3.23943        0.50713       -4.10478
F          4.90218        3.56736       -3.45318
F          5.86930        1.59383       -3.39811
F          2.85190        2.17704       -1.67842
F          4.71172        3.13937       -0.99272
H          1.54006        1.53198        0.17927
H          1.90054        1.50109        1.75480
H          2.38393       -0.65033       -0.17083
H          2.66929       -0.76654        1.58060
