22

N          1.71254       -0.09458        1.09129
C          2.72551       -0.06277       -0.00357
B          3.06613       -1.48550       -0.73009
S          1.54098       -2.08333       -1.76071
O          1.75243       -3.42734       -2.34112
O          0.29185       -1.89496       -0.97439
C          1.33818       -0.97952       -3.19895
C          4.45028       -1.56004       -1.63848
C          4.70784       -0.48895       -2.65556
O          4.86141       -0.63816       -3.85374
O          4.78239        0.79807       -2.15184
H          2.02664       -0.81161        1.75290
H          0.87712       -0.52309        0.67338
H          3.65774        0.34456        0.45155
H          2.39132        0.72075       -0.71052
H          3.11339       -2.38237        0.10492
H          2.21470       -1.06026       -3.85225
H          1.19696        0.05142       -2.85235
H          0.43527       -1.33775       -3.70986
H          4.52572       -2.53115       -2.14371
H          5.26962       -1.50589       -0.89857
H          4.49691        0.76826       -1.21862
