24

C          1.49631        0.07229        0.60231
C          2.69647       -0.27053       -0.27571
P          3.64651       -1.91284        0.22716
C          2.53033       -2.97093       -1.01331
C          2.71004       -4.45447       -0.80571
N          1.76685       -5.28163       -1.61517
C          4.73450       -0.97912        1.54621
H          0.98691        1.00688        0.30120
H          1.79706        0.18490        1.65692
H          0.74509       -0.73403        0.58126
H          3.44737        0.53683       -0.24362
H          2.38857       -0.38451       -1.32872
H          2.64116       -2.21809        1.31444
H          4.62928       -1.62292       -0.87505
H          4.39841       -3.16016        0.57788
H          2.77524       -2.67873       -2.04867
H          1.48123       -2.68650       -0.80718
H          2.62293       -4.66215        0.28117
H          3.73328       -4.74811       -1.09536
H          0.81999       -4.93175       -1.44468
H          1.77076       -6.24561       -1.26492
H          5.67837       -0.64033        1.08421
H          4.96433       -1.68641        2.35841
H          4.21930       -0.10399        1.97632
