38

C          1.53049       -0.74755        0.90579
C          2.94162       -0.14240        0.89773
Ta         3.24733        1.87178        1.79801
C          1.70016        3.28167        2.54279
C          0.43277        3.56456        1.96031
C         -0.47760        4.44100        2.53874
C         -0.18096        5.12160        3.73976
C          1.04281        4.88761        4.34771
C          1.95363        3.97963        3.76655
C          3.23353        3.64062        4.34655
O          4.00761        2.85694        3.77791
O          3.63585        4.15269        5.55107
C          5.49369        1.84862        1.58893
C          5.96886        1.21077        0.26514
C          5.64963        2.03604       -0.99120
C          6.36295        3.05907        1.94038
H          1.49479       -1.78837        0.52873
H          0.84918       -0.15115        0.27900
H          1.10601       -0.75372        1.92129
H          3.35043       -0.18422       -0.12856
H          3.61268       -0.78032        1.51984
H          2.42730        1.08322        3.21589
H          2.26331        2.15343        0.33209
H          3.40982        3.58042        1.21543
H          0.17570        3.07313        1.01884
H         -1.44347        4.61668        2.05510
H         -0.89713        5.81869        4.17772
H          1.27988        5.42622        5.27611
H          2.91407        4.71663        5.87967
H          5.65834        1.08066        2.38713
H          5.53019        0.20757        0.14820
H          7.06965        1.05399        0.30704
H          4.56511        2.18694       -1.09820
H          6.02034        1.53824       -1.90176
H          6.11242        3.03267       -0.94561
H          6.19100        3.88986        1.23932
H          7.44650        2.81541        1.90299
H          6.14048        3.43796        2.94583
