38

N          2.59649        1.43697       -0.91305
C          2.89347        0.13039       -0.27123
Nb         3.34403       -0.15512        1.90870
C          1.94903       -0.53688        3.57195
C          0.42245       -0.43825        3.54672
C         -0.17263       -1.31044        2.43336
C         -0.22612       -0.77988        4.90118
C          5.38753       -0.09004        2.73738
C          6.06458        1.06505        3.47473
C          5.35868        1.50306        4.76779
C          5.29368        0.41029        5.83355
N          4.75704        0.94225        7.10132
H          3.42991        2.01522       -0.77004
H          1.91126        1.89229       -0.30187
H          3.72006       -0.34171       -0.83718
H          2.02261       -0.53884       -0.43567
H          3.44813       -1.77890        1.04291
H          3.99860        1.44873        1.46749
H          2.11339        1.12745        1.77041
H          2.35361        0.14266        4.35393
H          2.25324       -1.56751        3.88346
H          0.17678        0.61175        3.30936
H          0.09386       -2.36960        2.58481
H          0.21853       -1.00577        1.45229
H         -1.27269       -1.24081        2.40405
H         -0.01378       -1.82585        5.17944
H         -1.32323       -0.65611        4.87650
H          0.17177       -0.13798        5.70145
H          5.93045       -0.29520        1.79003
H          5.45680       -1.03333        3.32739
H          6.09574        1.93119        2.79506
H          7.12068        0.83038        3.73191
H          4.33615        1.84601        4.54117
H          5.89497        2.37196        5.19609
H          6.30265       -0.04212        5.94159
H          4.61914       -0.39301        5.50106
H          5.39298        1.65444        7.46756
H          4.71623        0.20371        7.80554
