37

C          8.65534        4.52997        3.99489
C          8.56966        3.00063        4.03259
C          7.13401        2.46209        3.93372
C          7.01397        0.93661        3.93994
Ga         5.15431        0.25602        3.46101
C          3.79306        0.14344        4.97754
C          2.41546       -0.24558        4.43884
C          1.33151       -0.44986        5.50846
C         -0.04484       -0.77049        4.92609
N         -1.02111       -0.99753        5.98837
C         -2.34717       -1.27352        5.73315
N         -2.96549       -1.25847        4.59871
N         -3.06777       -1.60824        6.89879
O          4.42214        1.48481        2.17643
H          9.69382        4.89315        4.05031
H          8.09914        4.97674        4.83406
H          8.21123        4.92272        3.06691
H          9.03882        2.62285        4.95868
H          9.16192        2.57691        3.20217
H          6.66756        2.85530        3.01279
H          6.54077        2.88810        4.76468
H          7.34143        0.52707        4.91348
H          7.70092        0.51279        3.18428
H          5.22014       -1.19611        2.71938
H          3.72767        1.10265        5.52141
H          4.14305       -0.61200        5.70578
H          2.50125       -1.17470        3.84490
H          2.07973        0.52843        3.72635
H          1.25516        0.45397        6.13652
H          1.64048       -1.27316        6.18040
H          0.02687       -1.65151        4.25862
H         -0.39085        0.07417        4.30785
H         -0.64084       -1.42252        6.82935
H         -2.30565       -1.12525        3.82798
H         -2.86990       -0.99175        7.68445
H         -4.06284       -1.62840        6.68850
H          4.35964        0.99925        1.34229
