48

C          0.91502       -0.05389       -0.12331
C          2.44533       -0.03474       -0.06870
C          3.01148       -0.44235        1.29587
C          4.54224       -0.43689        1.35949
C          5.10349       -0.86075        2.72032
C          6.63417       -0.88067        2.78168
C          7.18458       -1.33979        4.13720
C          8.71724       -1.39922        4.20718
Si         9.39025       -1.90382        5.91470
C          8.75544       -0.70456        7.19854
C          7.83224       -1.06253        8.20097
C          7.33909       -0.11202        9.10033
C          7.72426        1.24520        9.06687
C          8.64800        1.58494        8.05474
C          9.14981        0.64815        7.14672
Al         7.00027        2.62067       10.38920
C          8.84334       -3.67959        6.28762
C         11.28336       -1.87357        5.82553
H          0.53884        0.24110       -1.11348
H          0.48194        0.63662        0.61620
H          0.52098       -1.05772        0.09718
H          2.81078        0.97412       -0.32616
H          2.85004       -0.70771       -0.84438
H          2.64011       -1.44978        1.55652
H          2.61180        0.23335        2.07261
H          4.91458        0.57239        1.10883
H          4.94094       -1.10714        0.57639
H          4.71819       -1.86464        2.97441
H          4.71708       -0.18538        3.50327
H          7.02495        0.12724        2.55491
H          7.02384       -1.54189        1.98603
H          6.76283       -2.33393        4.36950
H          6.81241       -0.66724        4.92826
H          9.13968       -0.40708        3.96824
H          9.11251       -2.09206        3.44209
H          7.48919       -2.09953        8.28189
H          6.62096       -0.44366        9.85890
H          8.98494        2.62428        7.97422
H          9.86128        0.97928        6.38024
H          5.35626        2.56833       10.33445
H          7.57797        4.09336        9.93229
H          7.52059        2.21617       11.89706
H          7.74887       -3.77075        6.32318
H          9.23835       -4.01663        7.25641
H          9.21500       -4.36460        5.51121
H         11.65090       -0.85777        5.62192
H         11.65838       -2.53780        5.03246
H         11.71778       -2.19807        6.78177
