21

O          3.75846       -3.03272       -1.82918
C          2.78335       -2.37121       -1.21818
O          1.67893       -2.85925       -0.99687
C          3.11514       -0.91919       -0.84042
C          4.58071       -0.66876       -0.44922
N          5.43972       -1.19235       -1.50447
C          6.74480       -1.05638       -1.36828
C          7.56276       -1.69353       -2.52812
C          7.18078       -1.23332       -3.97662
F          5.97970       -1.69415       -4.36337
F          7.18978        0.11019       -4.09934
F          8.10195       -1.72419       -4.85879
F          8.89678       -1.42024       -2.38111
F          7.42309       -3.05698       -2.51627
F          7.23703        0.30567       -1.24363
F          7.36393       -1.62907       -0.15642
H          4.62479       -2.37751       -1.83637
H          2.42977       -0.61881       -0.03718
H          2.87491       -0.30779       -1.72746
H          4.78412       -1.16087        0.52329
H          4.73384        0.41486       -0.29386
