25

N          3.57728       -3.01574       -2.45907
C          2.94911       -3.70842       -1.47606
O          1.96721       -4.44023       -1.66589
C          3.54092       -3.47471       -0.08330
C          5.07853       -3.42446       -0.00779
N          5.60304       -2.31251       -0.78307
C          6.89154       -2.10494       -0.75747
C          7.35217       -0.92961       -1.65673
C          6.64008        0.46132       -1.45778
C          6.61182        1.09822       -0.02469
F          7.84688        1.17059        0.50845
F          6.14302        2.37633       -0.13937
F          5.80094        0.45053        0.81696
F          7.31175        1.36950       -2.24825
F          5.35972        0.41653       -1.90377
F          8.69435       -0.69835       -1.52143
F          7.13712       -1.23844       -2.98149
F          7.51303       -1.81500        0.56539
F          7.78951       -3.22168       -1.15253
H          3.29485       -3.18525       -3.41771
H          4.46642       -2.53546       -2.19843
H          3.14962       -4.27302        0.56180
H          3.13978       -2.51605        0.28842
H          5.48008       -4.39604       -0.36254
H          5.36102       -3.34494        1.05971
