43

F          6.44721       -4.67436        1.41298
C          6.31829       -4.29436        2.72236
O          5.13591       -3.77208        3.03038
C          4.71883       -2.57970        2.26390
Ga         2.97371       -1.84144        2.97661
S          1.29023       -3.01125        1.61870
O          1.57626       -4.41065        1.30817
O         -0.09014       -2.66666        1.96681
F          1.51405       -2.23820        0.11666
C          2.45799       -2.41790        4.82762
C          3.42116       -2.85184        5.75980
C          3.07819       -3.20128        7.06718
C          1.73939       -3.12878        7.47967
C          0.75760       -2.71822        6.56683
C          1.11987       -2.37010        5.26363
C          1.37129       -3.51168        8.88521
C          1.74812       -2.49676       10.03416
C          1.17641       -1.02821       10.00928
C         -0.37394       -0.73950       10.16950
C         -1.11101       -1.27751       11.45324
C         -2.48942       -0.57029       11.74716
F         -3.27361       -0.55422       10.65432
F         -3.12377       -1.25992       12.71887
F         -2.31373        0.69154       12.17808
F         -1.36599       -2.59882       11.30391
F         -0.33690       -1.09468       12.55521
F         -0.47952        0.62374       10.18313
F         -1.02893       -1.19906        9.07785
F          1.80095       -0.35772       11.02200
F          1.53429       -0.44416        8.83823
F          1.40029       -3.04123       11.23923
F          3.10444       -2.34888       10.02736
F          0.02421       -3.75753        9.01685
F          2.02152       -4.67330        9.26210
F          6.52233       -5.39519        3.48531
F          7.37906       -3.44390        2.95914
H          4.61266       -2.87235        1.21010
H          5.51871       -1.82764        2.34202
H          2.71281       -0.33904        2.59616
H          4.46688       -2.94176        5.45921
H          3.84593       -3.54732        7.76042
H         -0.28857       -2.68243        6.87102
H          0.33295       -2.07489        4.56548
