29

S          2.77068       -2.20331       -2.52244
C          3.47068       -1.03632       -1.26908
C          4.08204        0.18916       -1.95247
C          4.63869        1.18855       -0.93232
Al         5.49252        2.89109       -1.60501
C          4.13200        4.19138       -2.41459
C          3.52403        5.10487       -1.52695
C          2.61314        6.08439       -1.93865
C          2.28987        6.21074       -3.29292
C          2.89064        5.35197       -4.21412
C          3.78397        4.35315       -3.77671
C          4.32955        3.41693       -4.81584
O          4.30964        2.20895       -4.75648
O          4.82859        4.03337       -5.94684
S          7.22209        2.49455       -3.09414
H          2.32715       -3.14150       -1.65189
H          4.23418       -1.56803       -0.68373
H          2.65942       -0.72902       -0.59419
H          3.32170        0.66970       -2.58856
H          4.88100       -0.13710       -2.63857
H          5.40859        0.69206       -0.31088
H          3.83593        1.48565       -0.22901
H          6.10825        3.70563       -0.32113
H          3.78660        5.05020       -0.46495
H          2.15709        6.75492       -1.20487
H          1.57651        6.96584       -3.63010
H          2.63415        5.42978       -5.27498
H          4.88616        4.98516       -5.74994
H          8.10275        3.10343       -2.26697
