35

C          2.44379        0.25380        1.67139
C          2.66249        0.19205        0.15363
C          2.95313       -1.24049       -0.35312
C          2.57503       -1.56313       -1.85074
C          3.39700       -0.79427       -2.92813
C          4.84137       -1.23947       -3.45221
F          5.59384       -1.87221       -2.53391
F          4.78929       -1.98124       -4.56585
F          5.53711       -0.10342       -3.79618
F          2.67426       -0.67330       -4.09957
F          3.57226        0.51808       -2.49238
C          2.65469       -3.14550       -2.02045
O          1.94554       -3.78883       -1.18651
O          3.35697       -3.58884       -2.94915
C          1.07162       -1.17280       -2.05400
C          0.30278       -1.88292       -3.20442
C         -0.96203       -2.61067       -2.74242
O         -2.09001       -2.31540       -3.16244
N         -0.73508       -3.60575       -1.84838
C          4.35903       -1.68833        0.07359
H          2.20830        1.27885        1.99581
H          3.33333       -0.06993        2.23144
H          1.60773       -0.39431        1.97643
H          3.49024        0.86302       -0.12133
H          1.76676        0.59604       -0.33840
H          2.25154       -1.91662        0.16403
H          0.98371       -0.08555       -2.18911
H          0.57870       -1.41298       -1.10259
H          0.95570       -2.62014       -3.69647
H         -0.00900       -1.16344       -3.96952
H          0.23028       -3.81140       -1.51778
H         -1.53655       -4.11658       -1.49836
H          5.14092       -1.01586       -0.30644
H          4.57794       -2.70481       -0.27604
H          4.43363       -1.69398        1.17078
