32

O          1.68610        0.95005        0.18697
C          2.62702        0.19932       -0.12439
O          3.23759        0.03338       -1.20317
C          3.17991       -0.75535        1.11559
C          2.75346       -0.11598        2.45282
C          1.19746        0.03670        2.81478
F          0.37687       -0.66117        2.01168
F          0.98072       -0.44079        4.08544
F          0.80723        1.31933        2.83177
F          3.32110       -0.82946        3.51297
F          3.28855        1.13943        2.56641
C          2.68158       -2.18743        0.90370
C          2.80898       -2.76221       -0.38014
C          2.37789       -4.06203       -0.64044
C          1.80170       -4.86156        0.35675
C          1.68557       -4.30413        1.63619
C          2.11851       -3.00400        1.90970
C          1.32321       -6.26305        0.06793
C          4.73278       -0.66693        1.01557
C          5.64946       -1.50676        1.89467
O          6.68903       -1.08080        2.35730
O          5.32677       -2.81760        2.08488
H          3.22172       -2.14090       -1.17718
H          2.48766       -4.46400       -1.65151
H          1.25324       -4.89706        2.44685
H          2.02066       -2.63759        2.92980
H          1.59707       -6.57529       -0.94899
H          0.22794       -6.33968        0.15682
H          1.75453       -6.99023        0.77276
H          5.04931        0.37322        1.14898
H          4.95390       -0.91249       -0.03602
H          4.43594       -2.98586        1.70689
