46

N          1.36170       -1.48577        0.24545
C          2.73385       -0.93603        0.19998
C          3.17160       -0.41951        1.56978
C          4.56815        0.22689        1.56054
C          5.03590        0.77285        2.91386
In         7.09927        1.66232        2.86350
C          7.98482        0.91726        0.89750
C          8.75813       -0.25850        1.01669
C          9.36626       -0.89177       -0.07079
C          9.20027       -0.36979       -1.35772
C          8.40751        0.76016       -1.52790
C          7.80877        1.40043       -0.42309
C          6.95202        2.58581       -0.80141
O          6.56326        2.76689       -1.94827
O          6.60476        3.48513        0.14308
C          8.24904        0.76246        4.56717
C          9.77656        0.67930        4.49514
C         10.43050       -0.01842        5.70162
C         11.93796       -0.21568        5.55544
N         12.51257       -0.86253        6.75263
H          1.05941       -1.74734       -0.69503
H          0.71938       -0.75027        0.54968
H          2.85275       -0.12199       -0.54250
H          3.40641       -1.74969       -0.11850
H          3.13985       -1.24926        2.29640
H          2.43432        0.32550        1.92480
H          4.57229        1.03530        0.80821
H          5.29552       -0.51481        1.18501
H          5.06622       -0.04031        3.66051
H          4.31834        1.51913        3.29378
H          7.16162        3.45856        2.71889
H          8.89615       -0.70875        2.00405
H          9.96826       -1.79167        0.08478
H          9.67421       -0.84537       -2.21933
H          8.22393        1.17477       -2.52028
H          6.97250        3.28763        1.04919
H          7.82852       -0.25331        4.67743
H          7.94623        1.30945        5.47706
H         10.20632        1.69154        4.39232
H         10.08478        0.14335        3.58071
H          9.95765       -1.00167        5.86450
H         10.22682        0.57144        6.61530
H         12.40908        0.75959        5.31576
H         12.13532       -0.87754        4.69564
H         12.33588       -0.27543        7.57083
H         13.52834       -0.92836        6.66621
