41

N          0.68211       -0.56801       -0.18858
C          2.14013       -0.81287       -0.20433
C          2.75612       -0.62103        1.17943
C          4.26514       -0.91588        1.22169
C          4.95534       -0.66274        2.56593
Ga         6.89611       -1.32933        2.55273
C          8.02519       -0.33866        1.14827
C          7.90879        1.18861        1.06383
C          8.38351        1.86190        2.35854
C          8.66764        1.77070       -0.14320
C          7.79070       -1.33991        4.41242
C          7.33991       -2.50793        5.29425
C          8.18267       -2.63867        6.56518
S          7.80285       -4.08613        7.65347
H          0.31311       -0.57777       -1.14153
H          0.50777        0.37328        0.17109
H          2.68086       -0.16622       -0.92522
H          2.29978       -1.85291       -0.53470
H          2.22953       -1.26816        1.90108
H          2.58008        0.41991        1.51136
H          4.76129       -0.31587        0.43603
H          4.42135       -1.96953        0.92531
H          4.41595       -1.20403        3.36474
H          4.89230        0.41069        2.82339
H          6.84446       -2.89482        2.09512
H          7.74956       -0.77697        0.17195
H          9.08745       -0.61088        1.30585
H          6.83985        1.44586        0.93271
H          9.44426        1.62353        2.54575
H          7.81044        1.49919        3.22296
H          8.28821        2.95942        2.31208
H          9.74505        1.54964       -0.05891
H          8.55309        2.86647       -0.22502
H          8.31297        1.31958       -1.08249
H          7.64275       -0.38285        4.94463
H          8.87676       -1.42573        4.22204
H          7.38938       -3.45452        4.73102
H          6.27995       -2.38410        5.58179
H          8.12742       -1.72506        7.17442
H          9.24058       -2.79391        6.30296
H          6.48186       -3.82429        7.79767
