58

C          1.61667        0.15818       -0.13365
Si         3.46048        0.38987        0.24468
C          3.96870        2.16999        0.14651
C          3.04410        3.23027        0.28728
C          3.43048        4.56506        0.28589
C          4.80004        4.94051        0.14290
C          5.72982        3.86964       -0.00164
C          5.32728        2.54306        0.00162
N          5.29740        6.21048        0.12506
C          4.52808        7.28548        0.25068
C          5.35488        8.60650        0.23365
C          6.36094        8.82818       -0.95938
C          5.82791        8.70472       -2.42919
F          4.75194        9.49050       -2.63251
F          6.81069        9.13229       -3.27357
F          5.52886        7.44645       -2.76510
F          6.82763       10.11971       -0.84446
F          7.43100        8.00504       -0.84911
F          4.52294        9.69552        0.24849
F          6.12870        8.68258        1.36310
F          3.50107        7.49432       -0.76832
F          3.72315        7.40086        1.45270
C          3.78121       -0.25126        2.02326
C          3.47585       -1.73626        2.25191
C          3.75242       -2.18937        3.67524
C          3.38518       -3.67539        4.03346
C          4.00488       -4.86830        3.21188
C          5.56891       -5.10073        3.13996
C          6.35136       -5.33932        4.48450
C          7.81019       -5.90641        4.29495
F          8.52248       -5.14117        3.44925
F          8.42315       -5.90597        5.49600
F          7.79317       -7.16941        3.83316
F          6.46455       -4.17080        5.15589
F          5.67771       -6.23356        5.25562
F          5.72718       -6.22039        2.37320
F          6.13442       -4.05863        2.48380
F          3.44965       -6.00945        3.70536
F          3.60421       -4.74245        1.91361
F          3.67409       -3.90352        5.34710
F          2.03336       -3.81182        3.87414
F          5.07541       -2.01186        4.00822
F          3.02099       -1.44303        4.57294
C          4.46353       -0.69169       -0.95045
H          0.98750        0.72942        0.56411
H          1.31673       -0.89866       -0.06707
H          1.38546        0.50709       -1.15034
H          1.97816        3.00669        0.39932
H          2.67705        5.34413        0.39458
H          6.78290        4.13384       -0.11766
H          6.09469        1.77009       -0.11503
H          3.18672        0.37266        2.70804
H          4.83668       -0.04215        2.25777
H          4.07993       -2.36285        1.58069
H          2.42010       -1.96477        2.04035
H          4.29730       -0.36167       -1.98573
H          4.18371       -1.75421       -0.88805
H          5.54240       -0.61603       -0.75134
