30

O          2.73973       -0.73614        1.58420
Ta         2.70512        0.55421        0.13300
C          4.21014        1.61832        1.54887
C          5.11371        2.61050        1.10551
C          6.02772        3.24310        1.96470
C          6.08175        2.91396        3.32135
C          5.20669        1.93060        3.78856
C          4.29870        1.30327        2.92121
C          5.23246        1.52997        5.23541
F          6.18041        2.19497        5.96533
F          4.03890        1.76184        5.86768
F          5.48897        0.19573        5.40884
C          6.93019        4.31665        1.42905
F          7.46481        4.00525        0.21278
F          6.27773        5.51344        1.25384
F          7.98862        4.59132        2.25472
C          1.91145        1.33204       -2.24745
C          3.19579        1.76440       -2.03055
O          4.05564        1.03112       -1.36246
O          3.65550        3.02766       -2.31657
H          2.18125       -1.49633        1.36223
H          2.26319       -0.99029       -0.79294
H          0.93764        0.39795        0.02142
H          1.81043        1.99837        0.67113
H          5.12287        2.89868        0.05129
H          6.78962        3.40007        3.98963
H          3.64378        0.52440        3.32107
H          1.12137        2.01391       -2.55540
H          1.72330        0.25759       -2.23507
H          2.97208        3.46951       -2.84652
