36

C          1.09962        0.42878       -0.23930
C          2.60743        0.18858       -0.37513
C          2.97131       -1.28950       -0.58679
C          4.45016       -1.57555       -0.75812
As         4.87935       -3.63678       -0.65136
C          4.62726       -3.78078       -2.77488
O          5.04350       -5.12621       -3.21455
C          4.54118       -5.58634       -4.34246
F          4.79042       -4.79935       -5.44957
F          5.07941       -6.80963       -4.60836
F          3.17292       -5.75690       -4.33164
C          6.96353       -3.28246       -0.77746
C          7.66625       -4.28416        0.11392
C          9.09078       -3.94875        0.56433
S         10.35875       -3.87056       -0.76741
H          0.86289        1.49018       -0.06666
H          0.68179       -0.14898        0.59967
H          0.56726        0.11157       -1.14957
H          3.12456        0.55646        0.52798
H          3.00284        0.78718       -1.21387
H          2.41428       -1.67140       -1.46226
H          2.58846       -1.87496        0.27157
H          5.03951       -1.15729        0.07403
H          4.84462       -1.17141       -1.70499
H          5.03369       -3.53022        0.97149
H          3.29901       -3.93884       -0.48966
H          5.17606       -5.21350       -0.60265
H          5.23053       -3.04927       -3.33238
H          3.55550       -3.65641       -2.98711
H          7.11348       -2.25171       -0.41829
H          7.28807       -3.34859       -1.82503
H          7.66435       -5.28263       -0.35525
H          7.06998       -4.39368        1.04581
H          9.44606       -4.66018        1.32627
H          9.12739       -2.94148        1.00795
H         10.09676       -5.09212       -1.29095
