24

C          1.62401        1.19030       -0.64202
C          2.96511        0.49003       -0.42936
C          2.84260       -0.92067        0.20056
N          2.15310       -1.80483       -0.70540
C          1.02879       -2.39868       -0.46781
C          0.77264       -3.49649        0.65471
C          0.93903       -3.13181        2.16913
F          0.21354       -2.06573        2.55173
F          0.53340       -4.18713        2.93878
F          2.23240       -2.89738        2.49795
F         -0.48588       -4.04543        0.56299
F          1.66129       -4.53910        0.45209
F         -0.20700       -1.47010       -0.11454
F          0.54332       -3.07452       -1.61587
C          4.25260       -1.46587        0.49963
H          1.75186        2.16599       -1.13735
H          1.10625        1.35852        0.31521
H          0.96242        0.56356       -1.25418
H          3.61985        1.11148        0.20984
H          3.47939        0.36889       -1.39890
H          2.31549       -0.77997        1.16752
H          4.81108       -1.56719       -0.44412
H          4.19211       -2.46117        0.95749
H          4.81759       -0.79990        1.17352
