16

S          1.81349        0.66636        3.08726
N          2.49660       -0.91539        3.10173
S          2.97115       -1.49613        1.70481
O          3.08370       -2.94699        1.81779
O          2.39407       -0.93601        0.48164
C          4.82572       -0.98150        1.54929
C          5.47965       -1.20038        0.14463
C          7.05057       -1.14816        0.10611
F          7.52698       -0.02661        0.68858
F          7.60712       -2.21382        0.71549
F          7.47674       -1.15152       -1.18527
F          5.13614       -2.41859       -0.35672
F          5.04865       -0.23545       -0.71443
F          4.95860        0.35120        1.85106
F          5.56687       -1.67669        2.47063
H          2.87932        1.39345        3.53516
