49

F         -4.82729       -3.85378       -0.76489
C         -5.36630       -3.40836       -2.00453
N         -4.96062       -4.04331       -3.10940
C         -3.65768       -4.06580       -3.47650
C         -3.32055       -4.78747       -4.66667
C         -2.01939       -4.88380       -5.12919
C         -0.93046       -4.26765       -4.45801
C         -1.25898       -3.54619       -3.28579
C         -2.55761       -3.44138       -2.80430
Si         0.79945       -4.42541       -5.09607
C          0.88024       -3.89125       -6.93741
C          0.29580       -2.49445       -7.17645
C          0.52453       -1.88713       -8.54931
C         -0.08035       -2.58148       -9.82357
C         -1.62603       -2.87888       -9.89418
C         -2.69262       -1.70678       -9.88948
C         -2.60427       -0.61451      -11.02166
C         -3.91987        0.23260      -11.20989
F         -4.33747        0.74931      -10.04149
F         -3.64997        1.25025      -12.05722
F         -4.90942       -0.50295      -11.74535
F         -1.61090        0.25837      -10.72925
F         -2.34158       -1.20058      -12.22022
F         -3.90136       -2.32783      -10.01734
F         -2.65916       -1.08599       -8.68799
F         -1.82861       -3.59562      -11.03661
F         -1.95403       -3.67242       -8.84020
F          0.23658       -1.82991      -10.92065
F          0.52343       -3.79586       -9.97420
F          0.06292       -0.58567       -8.56546
F          1.87833       -1.81215       -8.81785
C          2.00712       -3.33554       -4.11977
C          1.44687       -6.20993       -5.06471
F         -6.73247       -3.51728       -1.82062
F         -5.13322       -2.00497       -1.93666
H         -4.14066       -5.26961       -5.20325
H         -1.83906       -5.45980       -6.04479
H         -0.46413       -3.04436       -2.72362
H         -2.74704       -2.87175       -1.89489
H          0.33509       -4.64207       -7.52893
H          1.92965       -3.92996       -7.27088
H          0.75493       -1.75793       -6.49620
H         -0.78088       -2.47943       -6.95612
H          1.72131       -2.27424       -4.15091
H          3.02712       -3.42466       -4.52236
H          2.03699       -3.63432       -3.06201
H          0.76619       -6.87895       -5.61089
H          1.50708       -6.57689       -4.03010
H          2.44634       -6.29511       -5.51852
