72

C          0.66624       10.42853       -1.40463
C          2.14021       10.42290       -0.99255
C          2.82694        9.07842       -1.24801
C          4.31875        9.06038       -0.90204
C          4.99698        7.73235       -1.25104
C          6.52202        7.73914       -1.10396
C          7.17408        6.47778       -1.68430
C          8.70910        6.53091       -1.77274
Si         9.45145        5.26139       -2.98180
C          8.55163        5.49360       -4.62599
C          8.46413        6.77963       -5.19573
C          7.73726        7.01566       -6.36496
C          7.07238        5.96872       -7.02959
C          7.16329        4.67964       -6.47395
C          7.88342        4.45191       -5.29497
Ga         6.02636        6.33176       -8.67726
S          7.03523        8.18250       -9.98158
O          6.90270        8.04293      -11.43923
O          6.46319        9.38299       -9.33955
C          8.97237        8.61511       -9.77078
C         10.07407        7.52956       -9.97002
C         10.21576        6.88266      -11.39214
C         11.52403        6.02339      -11.58645
F         11.70293        5.14767      -10.58178
F         11.41957        5.33201      -12.74136
F         12.61985        6.80718      -11.67354
F          9.16405        6.07025      -11.61391
F         10.24916        7.85076      -12.34948
F         11.29025        8.09781       -9.66077
F          9.83893        6.53472       -9.07280
F          9.19598        9.65122      -10.61972
F          9.14508        9.07834       -8.49644
S          6.24793        4.22595       -9.92243
O          7.58779        3.79443      -10.34601
O          5.45074        3.29713       -9.09290
C          5.17443        4.32404      -11.58748
C          5.94252        4.07220      -12.91193
F          6.93668        4.95414      -13.08164
F          6.44610        2.82111      -12.93885
F          5.09527        4.19286      -13.97619
F          4.17576        3.40708      -11.50823
F          4.62047        5.56629      -11.63673
C         11.30402        5.60203       -3.16692
C          9.21341        3.50100       -2.32971
H          0.19497       11.40429       -1.21974
H          0.09472        9.66996       -0.84863
H          0.55612       10.20270       -2.47579
H          2.22999       10.68483        0.07554
H          2.67872       11.21161       -1.54484
H          2.70659        8.81192       -2.31273
H          2.30573        8.28776       -0.67933
H          4.45777        9.28734        0.16987
H          4.82328        9.87368       -1.45317
H          4.75343        7.48078       -2.29808
H          4.56443        6.92141       -0.63894
H          6.80723        7.86820       -0.04484
H          6.92615        8.61697       -1.63848
H          6.76158        6.32509       -2.69568
H          6.86234        5.59616       -1.09813
H          9.16917        6.42468       -0.77526
H          9.01734        7.52706       -2.13795
H          8.96820        7.62625       -4.71844
H          7.69738        8.03251       -6.76015
H          6.66594        3.83750       -6.96059
H          7.91632        3.43532       -4.89283
H          4.54383        6.77858       -8.82800
H         11.48284        6.60989       -3.56772
H         11.76827        4.88422       -3.85795
H         11.82157        5.52602       -2.19884
H          8.15323        3.26373       -2.16411
H          9.74050        3.37520       -1.37222
H          9.61777        2.75652       -3.03069
