60

C          9.41827       -5.64407       -0.97526
C          9.05217       -4.16423       -0.83869
C          9.36244       -3.58697        0.54627
C          8.96954       -2.11508        0.70153
C          9.27358       -1.53358        2.08569
C          8.82726       -0.07765        2.24845
C          9.10210        0.50915        3.63892
C          8.59377        1.94840        3.80632
Si         8.85634        2.74436        5.51839
C          8.11037        4.45924        5.54470
C          7.19331        4.89797        4.56591
C          6.61040        6.16647        4.62711
C          6.89853        7.08417        5.65922
C          7.83415        6.64258        6.62128
C          8.41743        5.37455        6.57631
B          6.17482        8.53900        5.72707
C          4.91738        8.54617        6.80322
C          5.20995        8.34240        8.29916
C          6.01576        9.50785        8.89181
C          3.92342        8.12881        9.11348
F          5.62109        8.86793        4.41181
C          8.04951        1.63153        6.83163
C         10.71764        2.80528        5.89291
H          9.19134       -6.02815       -1.98002
H          8.86290       -6.25794       -0.25028
H         10.49079       -5.80676       -0.79025
H          7.97880       -4.02864       -1.05424
H          9.58972       -3.57798       -1.60315
H         10.44092       -3.70349        0.75517
H          8.84026       -4.18546        1.31412
H          7.89066       -2.00476        0.49253
H          9.48781       -1.51528       -0.06754
H         10.35722       -1.61155        2.28571
H          8.77903       -2.15222        2.85588
H          7.74550       -0.00452        2.03779
H          9.32459        0.54819        1.48635
H         10.18768        0.46539        3.83715
H          8.63287       -0.14335        4.39634
H          7.51221        1.97873        3.58591
H          9.06538        2.60329        3.05276
H          6.92870        4.23672        3.73377
H          5.91239        6.47771        3.84478
H          8.12745        7.32784        7.42365
H          9.13550        5.09538        7.35651
H          7.03076        9.39220        6.03544
H          4.19493        7.76957        6.48140
H          4.38834        9.51325        6.68052
H          5.81999        7.42608        8.40812
H          5.43546       10.44459        8.82961
H          6.94786        9.66542        8.33340
H          6.26061        9.33589        9.95367
H          3.27027        9.01506        9.03986
H          4.13263        7.95428       10.18354
H          3.35409        7.26774        8.73152
H          6.97259        1.51999        6.63803
H          8.15573        2.08409        7.82832
H          8.49970        0.62770        6.86569
H         11.25156        3.38546        5.12644
H         11.15974        1.79857        5.93468
H         10.90385        3.29141        6.86171
