28

C          2.89714        0.15015        3.19503
C          3.37407        0.03599        1.74286
C          3.90876       -1.35721        1.37104
C          4.40650       -1.50631       -0.07279
Al         5.17179       -3.32459       -0.55230
C          3.67550       -4.72232       -0.57352
C          2.67520       -4.53866       -1.71874
C          1.55466       -5.56275       -1.91490
O          0.75998       -5.53354       -2.86108
N          1.47979       -6.52323       -0.94405
O          6.40784       -3.79835        0.66624
H          2.52855        1.15983        3.43596
H          3.71376       -0.08365        3.89617
H          2.08074       -0.56041        3.39943
H          4.16719        0.78072        1.55363
H          2.54790        0.29667        1.05805
H          3.10859       -2.09556        1.57127
H          4.72511       -1.61606        2.07025
H          5.18954       -0.74636       -0.26319
H          3.58340       -1.25553       -0.77148
H          5.86251       -3.30621       -2.06010
H          3.15926       -4.70232        0.40528
H          4.17812       -5.70513       -0.65309
H          3.19605       -4.49038       -2.69087
H          2.16121       -3.56403       -1.63927
H          2.20691       -6.55641       -0.23638
H          0.80981       -7.27445       -1.04590
H          7.23774       -4.08319        0.26527
