46

C          1.25822       -1.06508        0.09538
C          2.54629       -0.21519        0.12701
C          2.92566        0.51994       -1.13367
C          2.28989        1.88296       -1.24330
C          0.77483        1.97174       -1.50945
C          0.30898        3.38552       -1.87687
C         -1.20913        3.52946       -2.02580
C         -1.66721        4.93285       -2.44038
C         -3.18785        5.07514       -2.55874
C          4.42420        0.61858       -1.28991
C          4.95327        0.91007       -2.70549
C          6.48185        0.99107       -2.79331
C          7.01097        1.37604       -4.17856
C          8.54049        1.42276       -4.27565
C          9.05745        1.81790       -5.66257
H          1.10598       -1.59990        1.05317
H          1.31418       -1.80101       -0.72246
H          0.36255       -0.45181       -0.08325
H          3.37062       -0.90044        0.40401
H          2.44631        0.49053        1.01191
H          2.78772        2.45482       -2.04827
H          2.47604        2.49494       -0.29808
H          0.21751        1.63619       -0.61782
H          0.52033        1.26478       -2.31901
H          0.79889        3.69217       -2.81995
H          0.66674        4.09494       -1.10805
H         -1.69389        3.25677       -1.07058
H         -1.57629        2.79519       -2.76579
H         -1.19689        5.19711       -3.40342
H         -1.28590        5.66772       -1.71020
H         -3.59599        4.37251       -3.30200
H         -3.48423        6.09021       -2.86390
H         -3.68360        4.85770       -1.60002
H          4.88279       -0.32983       -0.95275
H          4.88460        1.41569       -0.61578
H          4.52545        1.86084       -3.07051
H          4.57014        0.12810       -3.38419
H          6.91649        0.01842       -2.49546
H          6.84777        1.72131       -2.04849
H          6.59949        2.36190       -4.46223
H          6.62261        0.66487       -4.93025
H          8.95086        0.43654       -3.99722
H          8.92897        2.13094       -3.52322
H          8.71262        1.10953       -6.43180
H         10.15710        1.84095       -5.70098
H          8.69355        2.81567       -5.95299
