28

N          2.09743        0.32808        0.35213
Ta         3.86508        0.10815       -0.51064
C          4.46542       -1.90080        0.39276
C          4.75348       -2.05687        1.91153
F          5.95641       -1.54196        2.25997
F          3.80497       -1.43007        2.66242
F          4.76444       -3.36562        2.32980
F          3.30382       -2.72091        0.22162
F          5.51093       -2.60793       -0.20644
C          4.76995        2.10415       -0.76404
C          4.10651        3.24208       -0.25202
C          4.62307        4.53960       -0.38055
C          5.83884        4.77691       -1.03067
C          6.51345        3.65763       -1.55182
C          5.99542        2.37088       -1.41748
C          6.41652        6.16608       -1.15524
H          1.42687       -0.43197        0.45844
H          1.81837        1.12485        0.92029
H          4.01684       -1.17780       -1.71943
H          3.66346        0.64571       -2.20344
H          5.23275        0.37589        0.60445
H          3.14671        3.13651        0.26810
H          4.06646        5.38594        0.03812
H          7.46716        3.80209       -2.07160
H          6.56965        1.53857       -1.83919
H          5.71157        6.92357       -0.78271
H          6.65451        6.41799       -2.20161
H          7.35191        6.27476       -0.58103
