47

F          5.50327       -2.62129       -3.98291
C          4.95460       -3.39476       -3.01158
Nb         3.35673       -2.67955       -1.64707
S          3.16153       -0.24007       -1.39798
O          3.82014        0.56088       -0.35819
O          3.43854        0.09586       -2.81747
C          1.32613        0.43307       -1.20762
C          0.60432        0.01572        0.10030
F          0.57927       -1.33489        0.22011
F          1.20384        0.52714        1.18883
F         -0.68981        0.44566        0.10347
F          1.38800        1.79492       -1.23341
F          0.55078        0.03179       -2.25224
C          2.95042       -4.39369       -0.37432
C          3.90394       -5.23240        0.24133
C          3.53019       -6.38562        0.92697
C          2.17108       -6.73058        1.03086
C          1.20205       -5.91554        0.43173
C          1.59478       -4.76945       -0.26439
C          1.77326       -7.97875        1.76537
C          1.83924       -7.94604        3.34169
C          1.00078       -6.88079        4.14580
C         -0.58446       -6.88648        4.12778
C         -1.33760       -8.19322        4.57954
C         -2.85805       -7.97126        4.93426
F         -3.49857       -7.31886        3.94728
F         -3.43813       -9.17976        5.09472
F         -3.00255       -7.28308        6.07983
F         -1.29383       -9.10565        3.57948
F         -0.74918       -8.71705        5.68664
F         -0.95165       -5.88923        4.98571
F         -1.01589       -6.55337        2.88756
F          1.37481       -7.01046        5.45206
F          1.36287       -5.64238        3.72662
F          1.49495       -9.17751        3.82456
F          3.13670       -7.71428        3.69423
F          0.49819       -8.37960        1.44002
F          2.61241       -9.02736        1.43190
F          4.25041       -4.41509       -3.71195
F          6.00051       -4.05327       -2.40353
H          1.83206       -2.13289       -2.37259
H          3.66758       -2.25415        0.00440
H          4.76864       -1.68975       -1.41107
H          4.96666       -4.98459        0.17992
H          4.29003       -7.02593        1.37707
H          0.14727       -6.18216        0.49691
H          0.81338       -4.15848       -0.72833
