26

O          1.23699        0.01468        0.07415
C          2.44509       -0.25436        0.18962
O          3.18316       -0.50842        1.15227
C          3.28168       -0.19073       -1.28352
S          3.14476       -1.77098       -2.20962
O          1.83284       -1.87970       -2.83122
O          4.35106       -2.03666       -2.98757
C          3.16888       -3.17294       -0.89004
C          3.22178       -4.60321       -1.53132
F          2.20232       -4.80669       -2.38532
F          4.38029       -4.82558       -2.17767
F          3.12277       -5.52982       -0.53901
F          4.26890       -3.05192       -0.10423
F          2.05576       -3.11910       -0.12831
C          2.52781        0.84473       -2.09769
O          3.25505        1.11273       -3.36445
C          2.73487        2.04559       -4.15345
F          2.67996        3.29329       -3.57150
F          3.50523        2.16175       -5.26219
F          1.45767        1.78322       -4.57043
C          4.75300        0.14193       -1.05841
H          2.49578        1.77866       -1.52143
H          1.51236        0.51086       -2.32763
H          5.18500       -0.55610       -0.33353
H          4.80873        1.14460       -0.61098
H          5.33247        0.13078       -1.99001
