25

C          2.54434        0.21265       -1.32570
C          2.24769        0.00329        0.16358
C          2.91657       -1.24193        0.81379
C          2.49602       -1.20316        2.34665
O          3.16516       -0.41811        3.06166
O          1.50883       -1.91516        2.71098
C          2.53266       -2.56176        0.10234
C          1.02827       -2.80984       -0.20016
C          0.52907       -4.15756        0.32115
O          0.18773       -5.08790       -0.42517
N          0.50177       -4.21590        1.67438
N          4.39235       -1.15486        0.79879
H          2.07993        1.14157       -1.69054
H          2.16023       -0.61350       -1.94222
H          3.62521        0.29859       -1.52394
H          1.15630       -0.05252        0.30763
H          2.58852        0.87690        0.74111
H          2.93215       -3.37603        0.72277
H          3.09629       -2.60942       -0.84387
H          0.82699       -2.78867       -1.27931
H          0.42326       -2.02874        0.28151
H          0.88450       -3.39864        2.20942
H          0.27948       -5.10417        2.10764
H          4.62380       -0.56334        1.60750
H          4.71872       -0.67987       -0.04590
