42

C          1.14597        1.17143       -1.85569
C          2.23225        0.09381       -1.81128
C          3.62707        0.64638       -1.49042
C          4.70694       -0.43966       -1.46813
Ta         5.02177       -1.66293       -3.29973
C          3.65619       -2.43026       -4.87979
C          3.50297       -1.67517       -6.06923
C          2.88963       -2.19469       -7.21659
C          2.40095       -3.50839       -7.24212
C          2.52252       -4.27119       -6.06944
C          3.12561       -3.74046       -4.92479
C          1.79484       -4.09593       -8.49407
C          6.98658       -1.79261       -4.27754
C          7.68814       -3.11317       -4.62331
C          6.96970       -3.85556       -5.75128
S          7.68565       -5.48837       -6.18827
H          0.15314        0.74788       -2.07155
H          1.36619        1.91799       -2.63492
H          1.07952        1.70966       -0.89601
H          2.27205       -0.42596       -2.78485
H          1.96679       -0.67826       -1.06945
H          3.57082        1.19157       -0.52372
H          3.88774        1.39295       -2.26103
H          4.57391       -1.09857       -0.59472
H          5.71091        0.02517       -1.36174
H          4.78217        0.08405       -3.86833
H          4.02598       -2.88760       -2.42744
H          6.00378       -2.56035       -2.07080
H          3.87481       -0.64656       -6.09861
H          2.79217       -1.57174       -8.11252
H          2.13705       -5.29649       -6.05677
H          3.19342       -4.35898       -4.02506
H          1.49608       -3.31031       -9.20252
H          0.90857       -4.70736       -8.26732
H          2.51280       -4.75168       -9.01390
H          7.62740       -1.19384       -3.60041
H          6.86481       -1.17833       -5.19735
H          7.72966       -3.75983       -3.73262
H          8.73807       -2.95073       -4.94093
H          6.92178       -3.24028       -6.66125
H          5.93129       -4.09091       -5.47616
H          8.92851       -5.04128       -6.49043
