34

F          1.68918        2.48659       -1.16952
C          3.00512        2.20800       -1.05463
S          3.31529        0.33619       -0.80733
O          4.75793        0.24291       -0.94495
O          2.67664        0.10705        0.47190
C          2.52637       -0.53794       -2.07805
S          0.97991       -1.26643       -1.83813
O          0.77988       -2.29795       -2.84287
O          0.68382       -1.53322       -0.44778
C         -0.35358        0.05398       -2.30619
C         -1.71125       -0.57529       -2.77086
C         -2.93029        0.41999       -2.79852
F         -2.64228        1.53164       -3.50589
F         -3.98734       -0.18852       -3.39030
F         -3.30883        0.78386       -1.55943
F         -1.58228       -1.06133       -4.03224
F         -2.06595       -1.58899       -1.93549
F         -0.59627        0.83618       -1.21951
F          0.10823        0.84697       -3.30958
C          3.18604       -0.62438       -3.43206
C          4.24672       -1.77845       -3.73851
C          3.78768       -3.27511       -3.64802
C          4.90713       -4.33439       -3.98754
F          5.94135       -4.27307       -3.12825
F          4.36186       -5.57066       -3.89315
F          5.38244       -4.19044       -5.24097
F          3.38182       -3.55955       -2.38478
F          2.77724       -3.50875       -4.52292
F          4.68839       -1.58386       -5.02520
F          5.31308       -1.63511       -2.91143
F          2.26871       -0.70339       -4.45288
F          3.92836        0.51661       -3.67992
F          3.63705        2.72067       -2.12878
F          3.47450        2.84994        0.04296
