22

N          0.96564       -0.11414       -0.03192
N          2.41636       -0.08131        0.07638
C          2.89352       -0.94034       -0.93583
C          4.41605       -0.92932       -0.91148
O          4.94581       -1.83200       -1.90368
C          6.34866       -1.84083       -1.93105
C          6.77430       -2.81912       -3.01769
O          8.20014       -2.86562       -3.06426
C          8.67257       -3.74372       -4.06327
H          0.63654        0.46924        0.74483
H          0.62399       -1.07754        0.22891
H          2.55622       -0.68482       -1.98797
H          2.56286       -2.03200       -0.81502
H          4.77807       -1.22834        0.09169
H          4.78593        0.09552       -1.11221
H          6.77569       -2.15687       -0.95468
H          6.76010       -0.83243       -2.15350
H          6.36640       -2.49444       -3.99529
H          6.36168       -3.82406       -2.80041
H          9.77209       -3.72148       -4.02960
H          8.33932       -3.43491       -5.07619
H          8.33043       -4.78608       -3.89355
