28

O          0.57746        0.30123        0.22280
C          1.63562       -0.00505       -0.33704
O          2.07442        0.17899       -1.50144
C          2.72255       -0.85824        0.53918
S          2.72583       -0.51302        2.38603
O          1.44210       -0.60904        3.05036
O          3.86534       -1.23376        2.95932
C          3.18740        1.40097        2.47018
C          4.61013        1.81150        3.00173
C          5.90024        1.52456        2.15109
F          5.79236        2.01767        0.90623
F          6.93948        2.16621        2.75893
F          6.21350        0.22603        2.09748
F          4.58057        3.17901        3.14945
F          4.80164        1.26856        4.23196
F          2.96109        2.02627        1.29755
F          2.32322        1.90058        3.39583
C          2.49648       -2.36324        0.37229
O          1.16290       -2.74855        0.80765
C          0.95070       -4.05301        0.96419
F          1.16058       -4.78629       -0.18346
F          1.74971       -4.63704        1.91510
F         -0.32911       -4.24403        1.33660
N          4.04250       -0.49159        0.11336
H          3.24321       -2.93761        0.94506
H          2.59576       -2.57192       -0.70354
H          3.91254       -0.11638       -0.83809
H          4.72120       -1.25210        0.14349
