61

C          8.70773       -1.34800       -5.89088
C          8.33538       -0.99072       -4.44991
C          8.79863       -2.03504       -3.42993
C          8.43723       -1.69249       -1.98153
C          8.90793       -2.74241       -0.97100
C          8.55762       -2.41488        0.48368
C          9.05477       -3.47161        1.47842
C          8.71944       -3.16798        2.94583
Si         9.37552       -4.42799        4.21985
C          8.83378       -3.94916        5.94920
C          7.48289       -4.06252        6.33881
C          7.06533       -3.71014        7.62554
C          7.95846       -3.20904        8.59602
C          9.30250       -3.08863        8.19074
C          9.73614       -3.45407        6.91186
Al         7.31740       -2.67581       10.43375
C          8.27807       -3.58482       12.00100
C          9.17027       -2.89514       12.84642
C          9.80567       -3.50711       13.93077
C          9.56958       -4.85661       14.21675
C          8.69254       -5.57410       13.40735
C          8.05504       -4.94945       12.31660
C          7.10093       -5.68562       11.43827
O          6.54274       -5.18162       10.48243
O          6.83181       -7.00326       11.72777
Br         8.17341       -0.36733       10.61661
C          8.70108       -6.14489        3.77297
C         11.26758       -4.47145        4.09710
H          8.36104       -0.58472       -6.60204
H          8.26227       -2.30909       -6.18929
H          9.79816       -1.44132       -6.00715
H          7.24192       -0.86751       -4.37078
H          8.76952       -0.01094       -4.18811
H          9.89317       -2.16056       -3.51172
H          8.36320       -3.01586       -3.69201
H          7.34298       -1.56922       -1.89776
H          8.87256       -0.71220       -1.71883
H         10.00225       -2.86490       -1.06049
H          8.47323       -3.72249       -1.23710
H          7.46341       -2.30615        0.58475
H          8.98522       -1.43343        0.75410
H         10.14788       -3.57516        1.35857
H          8.63018       -4.45042        1.19402
H          7.62576       -3.09233        3.07581
H          9.11735       -2.17762        3.22802
H          6.73936       -4.44097        5.62725
H          6.00924       -3.83416        7.88511
H         10.03865       -2.68399        8.89320
H         10.79663       -3.34752        6.66127
H          5.72417       -2.49603       10.62361
H          9.36178       -1.83818       12.63876
H         10.49179       -2.93355       14.55974
H         10.06338       -5.34539       15.05891
H          8.52843       -6.63103       13.65419
H          7.34392       -7.25406       12.51597
H          7.60324       -6.16633        3.83168
H          9.08160       -6.89890        4.47676
H          8.99229       -6.44957        2.75681
H         11.70490       -3.48253        4.29672
H         11.59320       -4.78675        3.09503
H         11.69241       -5.17671        4.82562
