33

C          2.18805       -1.36557       -0.38450
C          2.52162        0.05804        0.09675
Al         3.16587        1.40551       -1.29900
C          2.10998        1.35933       -3.07217
C          0.78592        2.13705       -3.00939
C         -0.22181        1.59623       -1.99014
C          2.95971        1.89761       -4.23400
C          5.16712        1.10603       -1.66898
C          5.60023       -0.27063       -2.18310
C          7.07919       -0.52779       -2.49286
O          7.49919       -1.58426       -2.97625
N          7.91894        0.50381       -2.17717
H          1.84696       -2.04488        0.42105
H          3.05792       -1.85180       -0.85602
H          1.39246       -1.35457       -1.14726
H          3.29934        0.00193        0.88332
H          1.63731        0.48100        0.60899
H          3.04092        2.94039       -0.68363
H          1.85888        0.30365       -3.30525
H          0.29916        2.15895       -4.01089
H          1.00288        3.19331       -2.76329
H         -0.46060        0.53985       -2.19367
H         -1.16681        2.16289       -2.00952
H          0.18250        1.64819       -0.96878
H          3.29104        2.93342       -4.04103
H          2.40429        1.91979       -5.19606
H          3.86963        1.29991       -4.39736
H          5.67109        1.33093       -0.70945
H          5.47412        1.89634       -2.38061
H          5.06747       -0.53948       -3.11169
H          5.31717       -1.06280       -1.46843
H          7.51502        1.37920       -1.85884
H          8.89886        0.43303       -2.41814
