28

C          2.68273        2.70525       -2.69272
S          4.30506        2.19970       -2.05290
C          3.78743        1.44601       -0.46355
C          4.96184        1.35708        0.51083
In         5.75302        3.30583        1.26130
S          3.74958        5.06605        0.85944
O          2.47289        4.37826        0.49134
O          3.64188        6.10310        1.92109
C          4.17464        6.01675       -0.65319
C          7.23143        4.30577       -0.11537
O          8.44815        3.45891       -0.23097
C          9.37765        3.87171       -1.08070
F          9.91301        5.10443       -0.77795
F         10.40909        2.98512       -1.07209
F          8.95283        3.97490       -2.38297
H          2.85655        3.22694       -3.64329
H          2.19979        3.38719       -1.97932
H          2.03601        1.83650       -2.88219
H          3.36074        0.45269       -0.69388
H          2.99113        2.09081       -0.06395
H          5.79841        0.79514        0.06371
H          4.64057        0.78509        1.39562
H          6.14081        3.42028        2.97312
H          4.30307        5.31324       -1.48544
H          5.09297        6.58824       -0.47027
H          3.32518        6.69103       -0.82769
H          7.54857        5.29298        0.25052
H          6.80201        4.40842       -1.12090
