50

C          0.94276        0.19673        0.23368
C          2.46923        0.09333        0.16835
C          3.04474       -1.01883        1.05262
C          4.57216       -1.12368        0.99467
C          5.15328       -2.23050        1.88077
C          6.68159       -2.32270        1.82227
C          7.27052       -3.41451        2.72379
C          8.80548       -3.48003        2.69517
Si         9.57166       -4.72580        3.91164
C          8.92711       -4.35749        5.63455
C          8.95257       -3.03301        6.12533
C          8.42965       -2.69945        7.36980
C          7.85975       -3.69474        8.18668
C          7.85180       -5.02008        7.72835
C          8.37081       -5.34000        6.47148
C          7.33041       -3.35265        9.55102
C          8.40002       -2.59696       10.50386
O          8.74131       -1.47060       10.08566
O          8.74966       -3.28439       11.47992
Br         5.68955       -2.15454        9.29509
F          6.82239       -4.48709       10.14808
C          9.11495       -6.48480        3.37827
C         11.45352       -4.53414        3.84152
H          0.56202        1.00206       -0.41083
H          0.60119        0.40221        1.25931
H          0.46522       -0.74109       -0.08870
H          2.91610        1.05777        0.46441
H          2.78313       -0.07491       -0.87634
H          2.59969       -1.98581        0.75682
H          2.73041       -0.85183        2.09793
H          5.01336       -0.15510        1.28984
H          4.88645       -1.29028       -0.05159
H          4.71581       -3.20149        1.58701
H          4.84076       -2.06417        2.92620
H          7.11501       -1.34921        2.11298
H          7.00094       -2.49497        0.77820
H          6.84878       -4.39159        2.42860
H          6.93260       -3.24466        3.75966
H          9.22109       -2.48504        2.93416
H          9.16401       -3.71578        1.67709
H          9.38515       -2.23405        5.51512
H          8.46362       -1.67889        7.75144
H          7.43162       -5.79954        8.36271
H          8.33097       -6.38193        6.14274
H          8.02880       -6.64746        3.41439
H          9.58959       -7.23606        4.02528
H          9.45237       -6.66906        2.34756
H         11.75068       -3.52881        4.17212
H         11.83662       -4.68683        2.82143
H         11.94299       -5.26009        4.50579
