28

N          3.34898        0.08350        1.18607
C          2.58869        0.17067       -0.07413
C          2.89133       -0.97273       -1.03623
C          2.64045       -2.36274       -0.52147
C          1.85961       -2.59335        0.62433
C          1.54557       -3.89554        1.02087
C          1.99655       -5.00099        0.29128
C          2.77029       -4.77310       -0.84838
C          3.09266       -3.47411       -1.25489
C          3.25621       -5.93321       -1.67534
F          3.00090       -7.14248       -1.08992
F          2.67479       -5.97476       -2.90858
F          4.60426       -5.88798       -1.89193
C          0.74495       -4.14774        2.26695
F          0.24835       -3.01571        2.82895
F         -0.32451       -4.97398        2.03860
F          1.48587       -4.77110        3.24150
C          2.01027       -0.80640       -2.42248
O          0.99018       -0.10645       -2.25466
O          2.45910       -1.42625       -3.40199
Cl         4.69023       -0.82779       -1.46192
H          3.21965        0.94476        1.71948
H          4.34480        0.03069        0.95479
H          2.75236        1.10581       -0.63583
H          1.51116        0.13525        0.14102
H          1.51754       -1.75317        1.22272
H          1.75400       -6.01442        0.60660
H          3.67563       -3.29785       -2.15821
