26

C          0.82367       -0.10984       -0.26254
C          2.33825        0.06281       -0.10311
C          3.01505       -1.10147        0.63712
C          4.51608       -0.95823        0.83270
As         5.40319       -2.77450        1.31849
C          6.24592       -2.15699        3.11812
C          5.42828       -2.58375        4.32378
O          6.15369       -4.59053        1.62553
H          0.36461        0.73056       -0.80686
H          0.32954       -0.18180        0.71915
H          0.58826       -1.03419       -0.81281
H          2.54760        1.00653        0.43066
H          2.80444        0.17022       -1.09832
H          2.82256       -2.03608        0.07319
H          2.52150       -1.23548        1.61599
H          4.75610       -0.19880        1.59548
H          5.01226       -0.67031       -0.10930
H          6.80896       -2.35025        0.58796
H          4.09760       -3.31088        2.08701
H          4.82425       -3.31178       -0.07991
H          6.36082       -1.06199        3.05085
H          7.23956       -2.62471        3.10814
H          4.40659       -2.16974        4.28343
H          5.87148       -2.27092        5.28730
H          5.32459       -3.68009        4.33927
H          6.99113       -4.54624        1.13474
