31

S          5.36918        0.87192       -3.29211
C          4.74244        0.57649       -1.58377
C          5.39637        1.56263       -0.61908
C          4.98224        1.27927        0.83004
C          5.58817        2.24476        1.87849
C          5.10985        3.71767        1.48549
O          6.02371        4.51719        1.13747
O          3.86756        3.90759        1.54299
C          5.00957        1.85135        3.26105
C          5.16991        2.85862        4.41675
C          4.27921        2.43739        5.59519
C          6.61578        3.04936        4.89306
N          7.06541        2.19662        1.88868
H          4.65013       -0.09822       -3.90530
H          4.98036       -0.45958       -1.30292
H          3.65107        0.70129       -1.58264
H          5.11214        2.59264       -0.88372
H          6.49271        1.50311       -0.72333
H          5.26173        0.23897        1.09520
H          3.88662        1.35749        0.90793
H          5.45690        0.88261        3.55985
H          3.92843        1.68725        3.12757
H          4.79611        3.82704        4.04399
H          4.58455        1.45063        5.98450
H          3.22348        2.36687        5.29289
H          4.34885        3.15683        6.42695
H          7.02998        2.09950        5.27260
H          6.65721        3.78641        5.71238
H          7.26509        3.38144        4.07623
H          7.34079        3.08534        1.44035
H          7.40739        1.43164        1.30457
