33

N          1.65675        0.00499        1.16800
Ta         3.45463       -0.05368        0.26270
C          4.25933        1.86726        1.00700
C          3.55193        3.13897        0.56080
C          4.00319        4.44770        1.19485
O          5.06898        4.68600        1.71197
O          3.05980        5.46735        1.12906
C          4.49945       -1.66294       -0.91251
C          6.01736       -1.70606       -0.70334
C          6.68457       -2.85143       -1.49469
C          8.14966       -3.12624       -1.23237
C          9.15989       -1.97615       -1.54255
F          9.02536       -0.94470       -0.68699
F         10.43979       -2.41761       -1.45253
F          8.97570       -1.50956       -2.80224
F          8.37320       -3.48750        0.07881
F          8.57323       -4.20153       -2.00585
H          0.76822       -0.35856        0.84211
H          1.61371        0.19404        2.17272
H          3.83600        0.89411       -1.23605
H          2.31422       -0.50387       -1.05760
H          4.44170       -1.00313        1.50360
H          5.33587        1.91908        0.76618
H          4.20168        1.77577        2.11299
H          2.45987        3.04377        0.71296
H          3.67551        3.25827       -0.53216
H          2.26255        5.09607        0.71175
H          4.27325       -1.59977       -1.98799
H          4.05376       -2.61252       -0.54766
H          6.24591       -1.82190        0.36777
H          6.46421       -0.74700       -1.01636
H          6.56780       -2.68896       -2.57678
H          6.17572       -3.80005       -1.25849
