14

F          1.22873        0.80508       -0.45685
In         2.99420       -0.18517       -0.01765
C          3.97011        1.19720        1.48644
C          5.48463        1.14847        1.36961
C          6.32118        2.02660        2.29620
O          5.93881        2.78996        3.14980
O          7.69395        1.89163        2.09867
H          3.96776       -0.17452       -1.51885
H          2.51618       -1.76474        0.64334
H          3.65544        0.93480        2.50724
H          3.60156        2.21442        1.28710
H          5.80142        1.40206        0.33824
H          5.85988        0.11691        1.52520
H          7.81866        1.24970        1.37712
