85

C          1.03490       -0.37924        0.30653
C          2.54929       -0.22394        0.13978
C          3.05632       -0.66689       -1.23697
C          4.56886       -0.51110       -1.42528
C          5.06388       -0.97636       -2.79843
C          6.57419       -0.82263       -3.00456
C          7.05093       -1.32163       -4.37416
C          8.56706       -1.21037       -4.59448
Si         9.17871       -1.95634       -6.23566
C          8.57242       -3.72911       -6.32875
C          7.33592       -4.04910       -6.92264
C          6.79293       -5.33404       -6.83328
C          7.45115       -6.37442       -6.15025
C          8.70441       -6.05688       -5.59089
C          9.25065       -4.77243       -5.66877
Ga         6.65250       -8.19215       -5.80479
C          5.23635       -8.64668       -7.30015
C          5.70366       -9.06418       -8.72702
C          5.94823      -10.59768       -8.95126
F          4.77996      -11.25926       -9.10353
F          6.66756      -10.78283      -10.09015
F          6.62724      -11.16527       -7.94131
F          4.80946       -8.69528       -9.70646
F          6.87820       -8.41359       -9.01070
F          4.33762       -9.63759       -6.88430
F          4.44083       -7.51040       -7.50140
C          8.10028       -9.59631       -5.79263
C          9.14358       -9.61068       -6.73578
C         10.06880      -10.65334       -6.80506
C          9.98603      -11.71693       -5.89588
C          8.98879      -11.70477       -4.90754
C          8.06733      -10.65911       -4.87031
C         10.93966      -12.87081       -5.98292
C         10.33698      -14.27370       -6.39081
C          9.44829      -14.40187       -7.68939
C         10.02275      -14.08903       -9.12703
C         11.24629      -14.89744       -9.72205
C         11.15071      -16.46413       -9.83678
F         10.00429      -16.84472      -10.42934
F         12.18339      -16.89441      -10.59654
F         11.24314      -17.05887       -8.63755
F         11.39753      -14.43197      -10.99584
F         12.37176      -14.60429       -9.02839
F          8.97968      -14.27758       -9.98293
F         10.38094      -12.78309       -9.18194
F          9.00874      -15.69933       -7.72587
F          8.36764      -13.60145       -7.54577
F         11.35774      -15.17595       -6.49378
F          9.52452      -14.69626       -5.37781
F         11.96646      -12.62717       -6.86491
F         11.53632      -13.12170       -4.75586
C          8.50223       -0.92635       -7.67374
C         11.06925       -1.86273       -6.25774
H          0.70015       -0.05906        1.30367
H          0.72517       -1.42657        0.17212
H          0.48865        0.22139       -0.43665
H          3.06749       -0.80611        0.92091
H          2.83360        0.82873        0.31113
H          2.53086       -0.09082       -2.01975
H          2.77641       -1.72194       -1.40429
H          5.09461       -1.07946       -0.63742
H          4.84983        0.54655       -1.27166
H          4.53020       -0.41522       -3.58643
H          4.78641       -2.03460       -2.94542
H          7.10935       -1.37908       -2.21453
H          6.86052        0.23698       -2.87513
H          6.51699       -0.76182       -5.16261
H          6.74235       -2.37307       -4.49672
H          9.09756       -1.74157       -3.78414
H          8.89200       -0.15608       -4.53196
H          6.77184       -3.27806       -7.45653
H          5.82359       -5.52224       -7.30032
H          9.27123       -6.83212       -5.06496
H         10.21996       -4.58272       -5.19600
H          5.78960       -8.26339       -4.47122
H          9.22756       -8.79473       -7.45836
H         10.84914      -10.64778       -7.56560
H          8.93005      -12.51426       -4.17874
H          7.28722      -10.67811       -4.10432
H          7.40385       -0.89571       -7.67365
H          8.82440       -1.34103       -8.63915
H          8.86604        0.10956       -7.60663
H         11.50868       -2.42970       -5.42499
H         11.40736       -0.81981       -6.16843
H         11.47255       -2.27489       -7.19338
