33

N          2.79553       -4.02055        0.10981
C          3.85345       -3.01234        0.40788
C          3.29498       -1.71325        0.96960
B          4.42734       -0.58298        1.43044
C          5.39735       -0.11230        0.16931
C          4.65981        0.53932       -1.00443
C          5.54350        1.11154       -2.12589
C          6.35914        0.04429       -2.85451
N          7.12904        0.63613       -3.94591
C          7.93506       -0.11720       -4.77247
N          8.24898       -1.36579       -4.66792
N          8.44992        0.62679       -5.85665
O          5.26910       -1.07916        2.58123
H          3.16677       -4.74518       -0.51241
H          2.06024       -3.54711       -0.42207
H          4.46646       -2.79079       -0.49013
H          4.53351       -3.47283        1.14754
H          2.66790       -1.95492        1.84742
H          2.60815       -1.27391        0.21476
H          3.81260        0.42559        1.83685
H          5.99040       -0.97676       -0.19940
H          6.13926        0.60814        0.56737
H          4.03109        1.35721       -0.61107
H          3.95303       -0.18388       -1.45242
H          6.23742        1.85923       -1.70373
H          4.91659        1.63970       -2.87247
H          5.67934       -0.74503       -3.23210
H          7.05353       -0.43619       -2.14917
H          6.69172        1.44101       -4.38593
H          7.71610       -1.81082       -3.91577
H          8.81162        1.53751       -5.58008
H          9.16327        0.07824       -6.33131
H          5.84642       -1.78663        2.25963
