30

N          2.72379        0.19263        1.62730
P          2.84627        0.34579       -0.19576
C          3.46875       -1.51219       -0.37331
C          2.59600       -2.53656       -0.76236
C          3.04106       -3.85367       -0.93978
C          4.38238       -4.18796       -0.72989
C          5.26492       -3.17205       -0.34480
C          4.81228       -1.85745       -0.17591
C          6.71969       -3.49602       -0.16400
F          6.93792       -4.80598        0.17022
F          7.45223       -3.27830       -1.30581
F          7.31318       -2.74686        0.80827
C          2.06562       -4.93601       -1.30226
F          1.48358       -5.50708       -0.19498
F          1.03744       -4.48823       -2.07531
F          2.64458       -5.97028       -1.98816
C          2.98277        0.64255       -2.11570
N          3.63617        1.91300       -2.46202
H          3.66408        0.09728        2.02399
H          2.22233       -0.66920        1.86058
H          4.28033        0.77730       -0.05356
H          2.38922        1.75377       -0.11166
H          1.44903       -0.16345       -0.29129
H          1.54269       -2.28807       -0.92933
H          4.73276       -5.20959       -0.86448
H          5.51486       -1.07078        0.12018
H          1.95177        0.65056       -2.51186
H          3.52775       -0.17538       -2.61575
H          4.59902        1.86979       -2.11202
H          3.19393        2.63943       -1.88424
