44

N          2.23047       -7.28449        2.52855
C          3.61826       -7.03314        2.39137
N          4.42652       -7.62227        1.57420
N          4.05832       -6.07280        3.27271
C          5.47783       -5.74518        3.41044
C          5.65426       -4.61091        4.41675
C          7.11108       -4.18225        4.60696
C          7.24403       -3.06233        5.65555
C          8.64413       -2.54092        5.90126
S          9.09355       -1.02249        5.37029
O          7.92740       -0.17292        5.12216
O         10.24481       -0.48702        6.09600
C          9.79674       -1.18624        3.58102
C         10.14033        0.09670        2.74939
C         11.24343        1.11025        3.24249
C         12.70057        0.58653        3.50836
F         13.17394       -0.08929        2.43949
F         13.50391        1.66705        3.70098
F         12.78054       -0.18640        4.58973
F         11.36259        2.03991        2.23754
F         10.82076        1.75457        4.35146
F         10.54120       -0.31855        1.49823
F          9.01389        0.83946        2.58311
F         10.91021       -1.97059        3.59052
F          8.84276       -1.83457        2.83246
S          9.75047       -3.49364        6.84519
O          9.04070       -4.73876        7.17198
O         11.08754       -3.58730        6.26534
C          9.96780       -2.62690        8.41618
H          1.85721       -7.82492        1.75394
H          1.67978       -6.44049        2.67743
H          3.90984       -8.21948        0.92270
H          3.51963       -5.99758        4.13054
H          5.85625       -5.45621        2.41944
H          6.05737       -6.63285        3.72009
H          5.24212       -4.92883        5.39347
H          5.05183       -3.74513        4.09098
H          7.52308       -3.83248        3.64819
H          7.71967       -5.04139        4.92688
H          6.82873       -3.43330        6.60892
H          6.62287       -2.20352        5.35666
H          8.99059       -2.53660        8.90373
H         10.39857       -1.64336        8.20252
H         10.64930       -3.24183        9.01799
