74

C          3.96773       -1.66792       -0.00524
Si         2.63292       -0.38464       -0.43174
C          3.20011        0.85302       -1.68305
C          3.67007        0.46400       -2.96497
C          4.05544        1.37197       -3.93517
C          4.00720        2.79463       -3.72728
C          3.54200        3.17258       -2.42062
C          3.15480        2.24787       -1.46104
C          4.38736        3.78642       -4.68463
C          4.71157        3.46796       -6.07315
C          3.55984        3.09266       -7.08907
C          2.44405        4.16497       -7.40163
C          2.81919        5.49268       -8.15869
F          3.57302        5.26119       -9.24860
F          1.66787        6.08512       -8.57091
F          3.45568        6.37177       -7.36649
F          1.53271        3.53769       -8.21294
F          1.80193        4.53054       -6.26195
F          4.06987        2.72505       -8.31829
F          2.87494        2.01339       -6.60891
F          5.36032        4.52951       -6.72780
F          5.59528        2.35751       -6.22978
C          4.39759        5.24686       -4.28496
C          5.58913        5.67191       -3.38766
C          6.93059        5.44924       -4.09294
C          8.12683        5.81788       -3.25025
C          9.50513        5.57690       -3.93992
F          9.61018        6.30917       -5.07543
F         10.53013        5.92820       -3.12813
F          9.66186        4.27534       -4.26572
F          8.11252        7.15869       -2.90195
F          8.16413        5.10825       -2.07048
C          1.14045       -1.35898       -1.14317
C          0.42894       -2.27728       -0.14207
C         -0.69071       -3.08797       -0.77141
C         -1.45772       -4.09182        0.16351
C         -2.20265       -3.57143        1.45121
C         -3.38632       -2.52364        1.35877
C         -4.64628       -2.89485        0.49065
C         -5.91212       -1.99768        0.77116
F         -5.60710       -0.68966        0.70139
F         -6.84294       -2.27283       -0.16490
F         -6.44250       -2.25975        1.97932
F         -4.34610       -2.76146       -0.82091
F         -5.01344       -4.18078        0.73551
F         -3.81437       -2.35731        2.64636
F         -2.88965       -1.34024        0.92584
F         -2.69069       -4.67217        2.08719
F         -1.27996       -2.99472        2.27422
F         -2.37696       -4.77799       -0.57544
F         -0.54260       -4.99455        0.63215
F         -1.63820       -2.27468       -1.34752
F         -0.19708       -3.88757       -1.78020
C          2.07756        0.45893        1.17478
H          4.33967       -2.15916       -0.91627
H          3.60261       -2.45152        0.67684
H          4.82628       -1.17731        0.47553
H          3.74266       -0.60047       -3.21596
H          4.41641        0.98241       -4.88396
H          3.46985        4.22845       -2.15952
H          2.80230        2.63233       -0.49848
H          3.46991        5.50934       -3.74442
H          4.40666        5.89061       -5.17357
H          5.57390        5.08827       -2.45580
H          5.48079        6.73405       -3.11287
H          6.98531        6.03402       -5.02381
H          7.01904        4.38861       -4.37560
H          1.50439       -1.94078       -2.00446
H          0.43071       -0.62194       -1.54827
H         -0.00257       -1.68739        0.67848
H          1.12654       -2.99717        0.31309
H          2.89953        1.04784        1.60637
H          1.76687       -0.27624        1.93190
H          1.23475        1.14347        1.00109
