62

C          0.70521       -0.88863        0.23325
C          2.22498       -0.92075        0.44912
C          3.01547       -1.58066       -0.66921
As         4.92297       -0.71931       -0.94370
C          5.49988       -1.13585        1.06433
C          5.28934       -2.33421        1.75868
C          5.71231       -2.49427        3.08335
C          6.36457       -1.44931        3.77215
C          6.57360       -0.24290        3.07035
C          6.14699       -0.10059        1.74609
Si         6.96552       -1.72135        5.52035
C          8.24134       -3.14533        5.51669
C          9.34888       -2.95813        4.47341
C         10.37752       -4.06561        4.46432
F          9.83451       -5.28938        4.20448
F         11.34117       -3.85740        3.51891
F         11.03375       -4.18147        5.66139
C          7.79277       -0.16917        6.22416
C          5.55707       -2.23819        6.67629
C          5.75809       -2.46754       -1.74990
C          6.94474       -2.09164       -2.62698
C          8.27807       -2.02464       -1.87065
C          9.42806       -1.46417       -2.71276
C         10.77089       -1.40643       -1.97768
C         11.90570       -0.82678       -2.82742
H          0.18417       -0.38016        1.06245
H          0.28577       -1.90342        0.14518
H          0.45732       -0.35127       -0.69562
H          2.44666       -1.41300        1.40993
H          2.58438        0.12344        0.55832
H          2.55783       -1.39199       -1.65424
H          3.11206       -2.66883       -0.53511
H          6.34994        0.03622       -1.09423
H          4.31245        0.67331       -0.37799
H          4.56951       -0.29351       -2.48004
H          4.78013       -3.16794        1.26324
H          5.52903       -3.45098        3.58819
H          7.07458        0.59546        3.56705
H          6.32029        0.84491        1.21415
H          7.70067       -4.08345        5.31306
H          8.67635       -3.24460        6.52453
H          9.90693       -2.02352        4.63618
H          8.92425       -2.90382        3.45995
H          8.65203        0.15240        5.61853
H          8.15132       -0.35259        7.24784
H          7.08433        0.67061        6.26109
H          5.02792       -3.11677        6.28072
H          4.82199       -1.42611        6.77064
H          5.92507       -2.48601        7.68311
H          4.93626       -2.90309       -2.33679
H          6.03687       -3.16769       -0.94751
H          6.74199       -1.09299       -3.07063
H          7.05552       -2.78201       -3.48536
H          8.54445       -3.03403       -1.50681
H          8.14220       -1.39450       -0.97644
H          9.15768       -0.44815       -3.05157
H          9.54405       -2.06923       -3.63151
H         11.04504       -2.42062       -1.63974
H         10.65313       -0.80471       -1.06088
H         12.06205       -1.42152       -3.74093
H         12.85868       -0.80260       -2.27796
H         11.67654        0.20270       -3.14306
