25

C          1.11431       -0.49708       -0.14788
C          2.57321       -0.06160        0.01337
C          3.08684        0.77535       -1.16187
C          4.55185        1.20568       -1.01890
C          5.08891        2.01894       -2.20451
C          4.44652        3.41590       -2.34781
C          4.97964        4.29432       -3.44517
S          4.40220        4.11869       -4.99132
O          2.96444        3.85458       -4.97318
O          4.96226        5.05951       -5.94943
F          4.96941        2.61526       -5.68001
Cl         6.70710        4.71342       -3.30697
H          0.76548       -1.09259        0.70939
H          0.98185       -1.10559       -1.05523
H          0.45066        0.37584       -0.24156
H          3.21409       -0.95230        0.13430
H          2.68350        0.51780        0.94648
H          2.44582        1.66511       -1.27607
H          2.97045        0.20198       -2.09879
H          5.17232        0.30141       -0.88118
H          4.66516        1.79594       -0.08998
H          4.93873        1.46244       -3.14367
H          6.17677        2.15007       -2.09303
H          4.55825        3.95241       -1.38499
H          3.36522        3.31863       -2.52818
