37

F          0.30223        0.32368        0.00356
C          1.65166        0.14956        0.02158
C          2.36761        0.75161       -1.24180
C          2.26256        2.19531       -1.45746
S          3.42227        2.93844       -2.42439
O          4.16937        2.02509       -3.28224
O          2.90521        4.19383       -2.97295
C          4.92457        3.59353       -1.37711
C          4.67051        4.60299       -0.19352
C          4.59925        3.98401        1.24925
F          5.82070        3.58416        1.66552
F          4.16922        4.93975        2.11359
F          3.75757        2.94715        1.32419
F          5.69410        5.51592       -0.13994
F          3.52322        5.30387       -0.39626
F          5.62410        2.53173       -0.86987
F          5.74717        4.22975       -2.26550
C          0.94454        2.92030       -1.26572
C          0.69494        3.56602        0.11457
C         -0.75471        4.05696        0.20848
C         -1.10784        4.93388        1.39049
C         -0.92055        4.31672        2.81441
F          0.38163        4.14540        3.11474
F         -1.46024        5.11959        3.76242
F         -1.53721        3.11254        2.89209
F         -0.39065        6.10818        1.38068
F         -2.44525        5.29116        1.31469
F          3.66293        0.29044       -1.14023
F          1.79062       -0.04457       -2.29574
F          2.11279        0.70192        1.17075
F          1.87344       -1.18420        0.10919
H          0.11570        2.22807       -1.49092
H          0.88294        3.71037       -2.02779
H          1.38584        4.40752        0.25048
H          0.90326        2.84851        0.91705
H         -1.45011        3.20375        0.21222
H         -1.00478        4.66809       -0.67473
