20

C          3.39064        0.23713       -3.36281
C          2.79422       -0.12820       -1.99231
C          3.19586        0.87523       -0.92993
C          2.52998        2.23633       -1.06683
C          0.97054        2.32021       -1.15843
C          0.49330        3.75452       -1.24190
S         -1.35575        4.02656       -1.24443
Cl         2.56624        0.15194        0.70854
H          3.20280       -0.55410       -4.10801
H          4.47681        0.39565       -3.26970
H          2.95465        1.16864       -3.75833
H          3.18042       -1.11672       -1.69504
H          1.68652       -0.28145       -2.13528
H          2.95153        2.70472       -1.97764
H          2.84959        2.87797       -0.22616
H          0.54039        1.82375       -0.27550
H          0.61821        1.76101       -2.04268
H          0.89888        4.26823       -2.12600
H          0.81693        4.32571       -0.35667
H         -1.61076        3.21676       -2.29898
