54

F          8.97155        2.03330        2.66601
C          7.96474        1.73559        3.53093
C          6.62406        1.62742        2.85667
C          6.36701        2.37289        1.70727
C          5.10429        2.34039        1.06640
C          4.11736        1.51079        1.64946
C          4.39132        0.75991        2.79468
C          5.64103        0.80567        3.41971
C          3.32965       -0.14668        3.35923
F          2.06814        0.28466        3.09545
F          3.41689       -1.41744        2.85687
F          3.42471       -0.27416        4.71829
C          4.88763        3.15585       -0.13998
S          4.12980        2.41745       -1.47517
O          3.23148        1.33727       -1.07631
O          3.70351        3.37805       -2.48542
C          5.47962        1.43191       -2.39515
F          6.46680        2.24659       -2.85091
F          6.05314        0.51309       -1.58122
F          4.96688        0.77560       -3.46460
C          5.41627        4.51080       -0.22847
C          5.78658        5.17013       -1.43360
C          6.27494        6.46799       -1.43834
C          6.42368        7.19434       -0.24236
C          6.06050        6.56973        0.96232
C          5.57274        5.27130        0.96514
C          6.95970        8.58592       -0.26043
C          6.03794        9.71567       -0.86309
C          4.60317        9.96233       -0.25935
C          4.40821       10.46935        1.22901
C          5.09757       11.81723        1.66187
C          4.50298       12.45029        2.97773
F          4.44995       11.54767        3.97441
F          5.30621       13.46508        3.36362
F          3.27096       12.94910        2.77331
F          6.41421       11.59833        1.88831
F          4.96300       12.75253        0.68498
F          3.05919       10.64236        1.37173
F          4.79771        9.49681        2.08692
F          4.00340       10.88936       -1.06458
F          3.89039        8.81214       -0.34496
F          6.70004       10.91332       -0.81864
F          5.82005        9.41877       -2.17710
F          7.31483        9.01786        0.99912
F          8.10761        8.67145       -1.04178
F          8.32288        0.58367        4.17143
F          7.97990        2.71822        4.48840
H          7.15915        2.98726        1.28031
H          3.13234        1.46183        1.19291
H          5.84268        0.22336        4.31659
H          5.68964        4.64852       -2.38174
H          6.56715        6.91792       -2.38767
H          6.15625        7.10696        1.90560
H          5.28597        4.82646        1.91806
