58

O          0.65890        0.75752        0.16774
B          1.76017       -0.14244        0.58064
C          2.38444       -0.94951       -0.73891
C          2.89866       -0.23114       -2.02886
C          4.05780        0.80509       -1.87419
F          3.66715        1.89762       -1.20099
F          5.13286        0.27126       -1.25831
F          4.46302        1.21437       -3.11247
F          3.35958       -1.16113       -2.94240
F          1.86913        0.43864       -2.63021
F          3.41332       -1.82967       -0.38982
F          1.36807       -1.77776       -1.26586
C          2.83724        0.66962        1.48168
C          4.00865        0.09177        2.01365
C          4.87687        0.79916        2.84882
C          4.61836        2.13606        3.21693
C          3.44254        2.71720        2.69669
C          2.58413        2.00577        1.85582
Si         5.72667        3.10228        4.37670
C          7.44134        2.27955        4.51786
C          8.41528        2.95623        5.49469
C          9.79681        2.29197        5.56281
C         10.74198        2.95015        6.57291
C         12.12418        2.29435        6.65035
C         13.05145        2.93502        7.68754
C         14.43279        2.27807        7.77188
C         15.34380        2.91577        8.82362
C          5.95352        4.87793        3.74450
C          4.95619        3.20001        6.11158
H         -0.04721        0.22553       -0.22027
H          1.37641       -1.11593        1.25510
H          4.24833       -0.94532        1.76624
H          5.77442        0.29448        3.22081
H          3.19063        3.75359        2.94933
H          1.68255        2.48416        1.46581
H          7.88445        2.24683        3.50726
H          7.29870        1.22556        4.81314
H          7.97866        2.96427        6.50877
H          8.54875        4.01723        5.21898
H         10.25798        2.30981        4.55961
H          9.67302        1.22495        5.81916
H         10.27430        2.92799        7.57349
H         10.86040        4.01888        6.31973
H         12.60402        2.33523        5.65653
H         12.00501        1.22148        6.88369
H         12.56942        2.89394        8.68068
H         13.17312        4.00835        7.45632
H         14.91875        2.32835        6.78279
H         14.30925        1.20442        7.99341
H         15.51133        3.98232        8.61002
H         16.32681        2.42512        8.86193
H         14.89800        2.84832        9.82760
H          6.44636        4.88192        2.76168
H          6.55667        5.48503        4.43593
H          4.98077        5.37672        3.62595
H          4.84833        2.19494        6.54510
H          3.95052        3.64119        6.05540
H          5.55650        3.81026        6.80319
