26

O          1.57531        0.10160        0.39291
As         3.15141        0.54150       -0.59720
C          3.44976       -1.53306       -1.30840
C          3.06143       -1.99621       -2.72860
C          3.76008       -1.32353       -3.97145
C          5.31983       -1.44577       -4.14840
F          5.74512       -2.71294       -3.98008
F          5.63213       -1.07210       -5.41891
F          5.99139       -0.64129       -3.31617
F          3.21329       -1.90945       -5.08423
F          3.45924        0.00043       -4.01402
F          3.24918       -3.35781       -2.88984
F          1.72330       -1.76288       -2.90290
F          4.80661       -1.82081       -1.16033
F          2.80046       -2.41404       -0.45853
C          3.22717        2.53089        0.05594
C          4.52221        2.87065        0.70596
O          4.66903        3.31144        1.83411
O          5.63886        2.62527       -0.06100
H          1.87909       -0.37670        1.18233
H          4.05359        0.02224        0.59065
H          2.15583        0.88402       -1.74558
H          4.45701        0.86009       -1.51004
H          2.39006        2.71380        0.73486
H          3.09653        3.08279       -0.88615
H          5.35287        2.05727       -0.82072
