27

Br         1.38239        0.25399       -1.04792
Nb         3.80840        0.22111       -0.38989
S          4.84480        1.84692        1.18761
O          5.66370        2.99224        0.75795
O          3.66136        2.13185        2.03632
C          6.05738        1.09691        2.55236
C          7.39349        0.50811        2.03429
F          7.16518       -0.48831        1.14407
F          8.16078        1.43845        1.43908
F          8.12607       -0.02830        3.05625
F          6.36534        2.11185        3.41386
F          5.43575        0.11894        3.27258
C          4.75845       -1.18282       -1.72341
C          4.00550       -2.51893       -1.80869
C          3.10136       -2.59436       -3.03695
N          2.43334       -3.90546       -3.12833
H          4.16348       -0.57476        1.16073
H          3.68288        1.93833       -0.63131
H          5.08941        1.02024       -1.24768
H          5.59896       -1.25279       -0.98655
H          5.21634       -0.90448       -2.68092
H          3.38823       -2.70480       -0.91026
H          4.72130       -3.36519       -1.84550
H          3.70635       -2.34604       -3.93326
H          2.32120       -1.82276       -2.95458
H          3.12577       -4.63339       -3.31648
H          1.78798       -3.91324       -3.91953
