50

N          3.11854        1.14301       -5.90354
C          3.29308        0.80474       -4.47602
C          3.74294        2.01863       -3.66590
C          3.89764        1.72782       -2.16417
B          4.64864        2.81938       -1.21363
S          3.71252        4.53417       -1.22714
O          2.25144        4.33077       -1.34746
O          4.16842        5.40432       -0.11608
C          4.18644        5.46626       -2.72636
C          6.23242        3.04897       -1.45271
C          6.97065        4.03592       -0.75451
C          8.34006        4.20868       -0.93374
C          9.04768        3.38302       -1.82588
C          8.35248        2.38526       -2.52242
C          6.97774        2.23442       -2.33244
C         10.51508        3.58802       -2.03684
C         11.49440        3.12084       -0.89162
C         11.50757        1.61391       -0.43091
C         11.96489        0.45262       -1.40777
C         13.39828        0.53199       -2.05595
C         13.92188       -0.84304       -2.62406
F         13.00434       -1.42795       -3.41601
F         15.03113       -0.60879       -3.35812
F         14.25008       -1.69280       -1.63457
F         13.37747        1.40590       -3.08973
F         14.31251        0.94706       -1.14001
F         11.92911       -0.68495       -0.64841
F         11.05625        0.31933       -2.40202
F         12.33834        1.55242        0.65279
F         10.26128        1.27202       -0.02117
F         12.77949        3.43841       -1.24350
F         11.19156        3.83010        0.23290
F         10.96275        2.97654       -3.18892
F         10.81265        4.93628       -2.17084
H          2.93336        0.29911       -6.44878
H          3.99537        1.52644       -6.26445
H          4.01681       -0.02027       -4.30855
H          2.32051        0.45265       -4.09297
H          3.00679        2.82446       -3.81313
H          4.69549        2.38559       -4.09345
H          4.44332        0.77039       -2.04350
H          2.89356        1.54144       -1.74918
H          4.46413        2.54935       -0.03145
H          3.86277        4.92168       -3.62031
H          5.27276        5.61519       -2.72672
H          3.66440        6.42800       -2.64601
H          6.43485        4.69215       -0.06519
H          8.86529        4.99478       -0.38900
H          8.88218        1.73855       -3.22245
H          6.46689        1.44808       -2.89226
