16

F          2.43137       -1.06056       -0.98775
In         2.60014        0.55254        0.24256
S          4.13844       -0.32422        2.31090
O          5.26279       -1.22948        2.05985
O          4.39825        0.81483        3.20171
F          3.07281       -1.29084        3.23904
C          4.00485        1.91341       -0.76624
C          5.46758        1.55193       -0.55557
N          6.36137        2.47303       -1.30582
H          1.05786        0.83496        1.00217
H          3.81319        2.94899       -0.44841
H          3.73833        1.83437       -1.83419
H          5.63094        0.49173       -0.82524
H          5.73176        1.64669        0.50894
H          6.16392        2.37666       -2.30540
H          7.33346        2.17648       -1.18343
