38

C          2.62730       -0.40823        0.84127
O          3.87323        0.21897        0.63460
C          4.70661        0.15248        1.79095
C          6.03537        0.84731        1.52856
O          5.94723        2.26192        1.38185
C          5.80359        2.99424        2.60757
C          7.00980        2.95378        3.53879
In         8.98888        3.44247        2.67017
S          9.80844        0.90353        2.02240
O          9.31765       -0.08568        3.01226
O          9.62805        0.56503        0.59560
C         11.80092        0.80671        2.17341
C         12.37060        0.16499        3.45796
F         12.06861       -1.14503        3.52207
F         13.73452        0.26925        3.50101
F         11.89088        0.77995        4.56028
F         12.30282        0.12494        1.11047
F         12.26201        2.09837        2.10940
C         10.38849        3.88193        4.37645
O          9.81634        5.06881        5.06588
C         10.43761        5.47923        6.16467
F         11.74758        5.84415        5.96912
F          9.79189        6.57191        6.65100
F         10.46608        4.55018        7.17571
H          2.05134       -0.31039       -0.08905
H          2.05821        0.06660        1.66576
H          2.74138       -1.48497        1.08042
H          4.91172       -0.90760        2.04745
H          4.18182        0.60524        2.65636
H          6.45690        0.47657        0.58316
H          6.74033        0.56214        2.32900
H          4.88575        2.65283        3.13322
H          5.61116        4.02672        2.27777
H          7.10987        1.98037        4.04130
H          6.85940        3.69802        4.33830
H          9.26554        4.35981        1.20961
H         11.40707        4.13762        4.05566
H         10.43376        3.05859        5.10150
