56

C          5.81440        1.00807        4.28201
C          5.50795        1.93752        3.10622
Nb         3.55778        1.97070        2.07238
C          1.96234        2.76314        3.37085
C          2.20512        2.93259        4.75455
C          1.25283        3.47313        5.62594
C         -0.00662        3.89865        5.16054
C         -0.25517        3.75727        3.77512
C          0.69562        3.20662        2.91745
Si        -1.31496        4.58124        6.30434
C         -1.90534        6.27697        5.64554
C         -3.03165        6.91926        6.46240
C         -3.51128        8.25065        5.92543
F         -4.00946        8.15827        4.65967
F         -4.51634        8.77091        6.69954
F         -2.52535        9.19116        5.89212
C         -2.82220        3.43142        6.38401
C         -0.64169        4.81427        8.05971
C          3.72531        3.39338        0.36852
C          4.25071        4.76697        0.83871
C          5.78050        4.83950        0.72352
C          6.36899        6.16652        1.14761
C          7.92030        6.26382        1.01459
F          8.53258        5.33010        1.77604
F          8.30438        6.07142       -0.27183
F          8.37481        7.47814        1.40116
F          5.86615        7.21081        0.39447
F          6.08281        6.45562        2.46329
H          6.81007        1.17637        4.73530
H          5.76193       -0.04181        3.96015
H          5.07724        1.12373        5.09412
H          6.23331        1.76024        2.28595
H          5.64694        3.00068        3.41878
H          2.27115        0.77673        2.22313
H          4.02733        0.27648        2.14311
H          3.22437        1.05988        0.60121
H          3.16909        2.62866        5.17976
H          1.50229        3.56799        6.68791
H         -1.21851        4.07440        3.35862
H          0.43461        3.09499        1.85953
H         -2.22923        6.14094        4.60159
H         -1.03230        6.94724        5.61079
H         -2.72087        7.10410        7.50205
H         -3.91973        6.27032        6.50256
H         -3.26058        3.29145        5.38509
H         -3.60975        3.81145        7.05218
H         -2.52016        2.43960        6.74939
H          0.22284        5.49332        8.07144
H         -0.31770        3.85378        8.48570
H         -1.40834        5.22892        8.73122
H          2.65717        3.47779        0.08624
H          4.24767        3.06923       -0.54497
H          3.96232        4.97176        1.88692
H          3.81627        5.59680        0.25290
H          6.08251        4.66179       -0.32026
H          6.25080        4.05357        1.33457
