71

C          0.39727        8.43035        5.17082
C          1.92687        8.47874        5.19472
C          2.57457        7.83168        3.96627
C          4.10496        7.88533        3.97778
C          4.75717        7.24400        2.74902
C          6.28730        7.31469        2.75880
C          6.94353        6.67336        1.53009
C          8.47753        6.74596        1.53759
Si         9.33554        5.98769        0.01395
C          8.78534        6.86909       -1.54755
C          8.76568        8.27409       -1.60797
C          8.39874        8.95668       -2.77273
C          8.04029        8.27601       -3.94991
C          8.06095        6.86710       -3.88782
C          8.41283        6.18499       -2.72529
C          7.58288        8.95793       -5.23579
C          7.96626       10.47706       -5.27620
C          9.49851       10.68708       -5.31571
C          9.94170       12.06316       -4.80957
C          7.30474       11.23552       -6.44136
C          8.29218        8.25727       -6.52010
O          7.65858        8.36602       -7.60209
O          9.41078        7.72813       -6.30603
C          6.04715        8.75311       -5.36063
C          5.16526        9.43734       -4.30924
C          3.67735        9.13593       -4.51868
C         11.20646        6.16923        0.26836
C          8.92358        4.13959       -0.07104
H         -0.03868        8.90184        6.06327
H          0.03366        7.39234        5.13029
H         -0.00209        8.95256        4.28841
H          2.29830        7.97857        6.10554
H          2.26130        9.52757        5.26841
H          2.19947        8.32815        3.05399
H          2.24555        6.77968        3.89362
H          4.47987        7.38842        4.89055
H          4.42992        8.93832        4.05236
H          4.37725        7.73443        1.83595
H          4.44128        6.18790        2.67805
H          6.67081        6.82672        3.67322
H          6.60288        8.37118        2.82483
H          6.56043        7.16153        0.61833
H          6.62030        5.61956        1.46456
H          8.87569        6.24810        2.44055
H          8.79580        7.80092        1.61571
H          9.04129        8.86466       -0.72737
H          8.40200       10.04736       -2.75285
H          7.82076        6.30149       -4.78868
H          8.41302        5.09129       -2.74324
H          7.59713       10.94339       -4.34192
H          9.84669       10.53157       -6.34877
H          9.99606        9.90227       -4.72957
H          9.48405       12.88588       -5.38087
H         11.03365       12.18222       -4.88237
H          9.66494       12.20583       -3.75209
H          7.50853       10.72001       -7.39004
H          7.69174       12.26462       -6.49670
H          6.21371       11.30616       -6.32643
H          5.85027        7.66807       -5.32775
H          5.76389        9.06603       -6.37669
H          5.31712       10.52936       -4.33605
H          5.46561        9.11340       -3.29851
H          3.34025        9.47925       -5.50934
H          3.04616        9.62527       -3.76074
H          3.48376        8.05296       -4.46751
H         11.49102        7.22983        0.32648
H         11.75645        5.72789       -0.57511
H         11.54097        5.67504        1.19329
H          7.84817        3.96795       -0.21952
H          9.22383        3.63352        0.85875
H          9.45495        3.65268       -0.90144
