17

N          1.11110        0.13578        0.33611
Ga         2.65059       -0.65648       -0.41368
S          4.23714        1.23974       -0.96117
O          4.45801        2.21204        0.11351
O          5.40472        0.87987       -1.77390
F          3.26139        2.12588       -2.06919
C          3.72322       -1.61248        1.01558
O          3.41798       -1.00805        2.33057
C          3.98692       -1.56511        3.39074
F          5.35971       -1.56765        3.36369
F          3.61091       -0.88419        4.50204
F          3.62953       -2.88251        3.59228
H          0.70315        0.84222       -0.27763
H          1.33938        0.61611        1.20883
H          2.51037       -1.35847       -1.80849
H          4.80689       -1.53799        0.84784
H          3.44536       -2.67666        1.06255
