7

S          1.14525        0.38521       -0.54291
N          2.80983        0.37649       -0.20259
C          3.13354        0.76740        1.03001
F          2.70216        2.05265        1.49621
F          2.71056       -0.05889        2.13546
F          4.51443        0.81773        1.18667
H          0.71043       -0.80578       -0.00435
