8

B          1.14918        0.52005        0.15786
I         -0.03858       -0.47899        1.94768
Br         0.13906        0.12743       -1.62909
C          2.63449       -0.07661        0.10946
H          1.02090        1.70121        0.37481
H          2.65842       -1.16188       -0.07395
H          3.17051        0.11432        1.05391
H          3.20782        0.40696       -0.70158
