22

N          1.09246        0.30690       -0.13496
C          2.45044        0.01694       -0.08513
O          2.82982       -1.14150        0.05644
C          3.35037        1.24039       -0.25201
C          4.85772        1.02451       -0.27143
Ga         5.74506        2.85094       -0.49049
C          7.77207        2.74640       -0.19862
O          8.32807        4.13253       -0.29531
C          9.63398        4.27179       -0.24997
F         10.23284        3.78249        0.89615
F         10.31835        3.66474       -1.28679
F          9.94868        5.59792       -0.31099
H          0.46005       -0.42631        0.16584
H          0.78307        1.26490       -0.02022
H          3.08185        1.94410        0.56039
H          3.02192        1.75517       -1.17504
H          5.13261        0.35283       -1.09922
H          5.17953        0.53209        0.65937
H          5.12541        3.83883        0.62658
H          5.46228        3.39855       -1.97920
H          8.28691        2.13905       -0.95853
H          8.04402        2.36725        0.79844
