37

N          2.95209        1.79337        1.13412
C          2.44593        0.65892        0.30128
Ga         2.91458       -1.25284        0.83069
C          1.71963       -2.23779        2.21189
C          1.97327       -3.62306        2.32222
C          1.20687       -4.48620        3.10960
C          0.10739       -3.99183        3.82158
C         -0.19986       -2.63549        3.72877
C          0.60677       -1.77491        2.95061
C          0.22773       -0.32403        2.95229
O          0.92196        0.60738        3.29253
O         -1.08207       -0.07949        2.57206
C          4.85857       -1.48445        1.45659
C          5.72565       -2.26997        0.46544
C          7.18854       -2.45030        0.90387
C          8.08121       -3.23550       -0.06224
N          7.67309       -4.64991       -0.14850
H          2.47149        1.73884        2.03647
H          3.93096        1.59774        1.36203
H          2.83698        0.79651       -0.72365
H          1.35513        0.78934        0.20045
H          2.70958       -2.21991       -0.46505
H          2.80458       -4.04338        1.74666
H          1.45831       -5.54941        3.16458
H         -0.50116       -4.65273        4.44264
H         -1.04803       -2.23113        4.29023
H         -1.44618       -0.92985        2.26607
H          4.85202       -1.99980        2.43358
H          5.31322       -0.49286        1.64316
H          5.71890       -1.76769       -0.51968
H          5.28088       -3.26034        0.27964
H          7.21415       -2.94509        1.89404
H          7.64256       -1.45605        1.05951
H          9.14200       -3.10986        0.24276
H          7.98904       -2.80389       -1.07386
H          7.69833       -5.06877        0.78363
H          8.33086       -5.17848       -0.72296
