45

C          0.41302       -0.59165        0.19644
C          1.91392       -0.29965        0.11973
C          2.71927       -0.95593        1.24497
C          4.22849       -0.71082        1.15414
C          4.98917       -1.33574        2.32882
C          6.53431       -1.30014        2.29438
C          7.14166       -2.27051        1.17758
O          6.32077       -2.93176        0.48677
O          8.40223       -2.26987        1.11849
C          7.07334        0.14306        2.08700
C          7.28737        0.55265        0.62016
C          7.40863        2.06360        0.36432
C          8.59405        2.81670        0.93805
C         10.01506        2.32260        0.51943
F         10.09805        2.22494       -0.83167
F         10.96658        3.20287        0.92404
F         10.30546        1.12770        1.05329
F          8.52650        4.14129        0.52004
F          8.58271        2.85010        2.31165
C          7.07210       -1.79579        3.65897
C          6.66743       -3.21998        4.03813
N          7.42017       -3.65840        5.23712
H         -0.14317       -0.10512       -0.61895
H         -0.01213       -0.23665        1.14817
H          0.21807       -1.67320        0.13474
H          2.07884        0.79156        0.14383
H          2.30744       -0.64420       -0.85142
H          2.53571       -2.04508        1.23440
H          2.34014       -0.59306        2.21908
H          4.40727        0.37896        1.10977
H          4.61364       -1.15527        0.22319
H          4.68549       -2.39231        2.38173
H          4.64804       -0.84973        3.26604
H          8.03464        0.23452        2.61391
H          6.38352        0.85604        2.57847
H          6.43798        0.21427        0.01094
H          8.15771        0.00597        0.23170
H          6.52772        2.59373        0.76511
H          7.43178        2.25668       -0.71898
H          6.76879       -1.10373        4.46732
H          8.17199       -1.76429        3.58630
H          6.82439       -3.87524        3.16255
H          5.59613       -3.26510        4.29159
H          8.41814       -3.62720        5.01230
H          7.21370       -4.64204        5.42392
