43

I          5.31456       -2.23377       -0.51622
Nb         4.10859        0.23681       -0.27344
C          5.10313        1.18094        1.44573
C          6.25143        1.93259        1.10376
C          7.02794        2.58904        2.06220
C          6.68505        2.49348        3.41913
C          5.55987        1.73964        3.79559
C          4.78912        1.10956        2.81954
C          7.53563        3.17251        4.45224
C          7.49161        4.74878        4.51575
C          6.12006        5.48961        4.74556
C          5.31309        5.33126        6.09983
C          6.02663        5.71469        7.45090
C          5.03661        5.95489        8.65456
F          4.17637        4.92917        8.79165
F          5.76147        6.05837        9.78959
F          4.33873        7.09375        8.50108
F          6.86230        4.71442        7.81898
F          6.74246        6.85989        7.30100
F          4.23166        6.15658        5.96635
F          4.85999        4.05980        6.20341
F          6.37766        6.82376        4.60229
F          5.25903        5.12177        3.76565
F          8.34793        5.17859        5.49245
F          7.95582        5.22758        3.32566
F          7.25033        2.73256        5.72527
F          8.87855        2.90263        4.23857
C          2.51077        1.23231       -1.49816
C          1.02370        1.23791       -1.15902
N          0.73953        2.09656        0.00687
H          2.68478       -0.78671       -0.21447
H          2.87301        0.83112        0.83267
H          4.83408        1.00578       -1.73290
H          6.55802        2.00927        0.05502
H          7.91040        3.15510        1.76013
H          5.29171        1.65420        4.84913
H          3.90324        0.55157        3.13395
H          2.66387        0.75414       -2.48448
H          2.86894        2.27645       -1.61020
H          0.69261        0.18989       -1.01484
H          0.43987        1.64506       -2.00975
H          1.40198        1.80782        0.73926
H         -0.19470        1.89222        0.36805
