59

F          1.31110        0.52951        0.02100
C          2.64843        0.83550       -0.03718
C          3.29510       -0.15319       -1.08623
C          2.90644       -0.03238       -2.61925
C          3.85750        0.78276       -3.59242
C          5.33823        0.30799       -3.94454
C          5.60581       -1.20801       -4.25092
F          4.77519       -1.66489       -5.20665
F          6.87403       -1.33508       -4.69628
F          5.47267       -1.96268       -3.14801
F          5.67709        0.99607       -5.07328
F          6.19035        0.68197       -2.96370
F          3.18580        0.82563       -4.77803
F          3.98612        2.05394       -3.13238
F          2.81211       -1.28618       -3.14680
F          1.68020        0.54075       -2.72678
F          4.65552       -0.04146       -0.99007
F          2.96154       -1.41760       -0.70793
C          2.88965        2.33614       -0.15817
C          1.88574        3.15387       -0.97757
Si         2.08663        5.03563       -0.66667
C          2.04155        5.35557        1.15012
C          3.00367        6.14016        1.83904
C          2.95963        6.33152        3.20830
C          1.95338        5.73022        4.03828
C          0.97141        4.94910        3.33144
C          1.02032        4.78743        1.95737
N          1.95792        5.99859        5.35579
C          1.33952        5.21758        6.28995
C          0.83563        5.82923        7.47556
C          0.28977        5.08772        8.51698
C          0.20857        3.68367        8.46593
C          0.70584        3.06560        7.30691
C          1.24830        3.79340        6.25049
C         -0.34864        2.88033        9.61533
C          3.72608        5.58697       -1.44576
C          0.66871        5.85475       -1.62560
F          3.19818        0.39391        1.15413
H          3.92345        2.48431       -0.50486
H          2.86825        2.69595        0.88404
H          0.86245        2.88192       -0.67719
H          1.95732        2.95741       -2.05541
H          3.81642        6.61303        1.27803
H          3.70996        6.94674        3.70981
H          0.15573        4.49607        3.89681
H          0.22935        4.19104        1.48572
H          0.89641        6.91779        7.54065
H         -0.08704        5.61267        9.40151
H          0.67293        1.97321        7.23231
H          1.64118        3.26388        5.38111
H         -1.27770        3.32040       10.01272
H          0.35782        2.81244       10.46200
H         -0.57818        1.85028        9.30477
H          4.58713        5.11615       -0.95042
H          3.85455        6.67584       -1.36633
H          3.75730        5.32180       -2.51306
H         -0.30072        5.56306       -1.19691
H          0.67238        5.57451       -2.69027
H          0.74463        6.94926       -1.55670
