38

N          1.84540        3.31597        3.64780
C          3.16357        3.59979        3.03590
C          3.10850        3.44947        1.51843
C          4.45699        3.71174        0.81198
C          5.56801        2.69574        1.07640
Nb         7.63076        2.93527        0.28020
C          8.81112        1.13196        0.88335
C          8.73957        0.78117        2.38423
C          7.52095       -0.06794        2.74071
N          7.49854       -0.40536        4.18024
C          8.56324        4.57061        1.45671
C          8.07521        6.01262        1.29642
H          1.93135        3.32444        4.66645
H          1.57182        2.36072        3.40321
H          3.97067        2.95817        3.43388
H          3.42952        4.64075        3.28706
H          2.33133        4.13203        1.13095
H          2.77669        2.42203        1.27508
H          4.79584        4.72738        1.09203
H          4.28199        3.75297       -0.27434
H          5.24867        1.69236        0.72649
H          5.75587        2.59989        2.17144
H          6.56413        3.10048       -1.12457
H          8.26376        2.21371       -1.20964
H          8.20417        4.11161       -0.91143
H          9.83231        1.47701        0.62530
H          8.65108        0.22725        0.27352
H          8.72458        1.68813        3.01750
H          9.64212        0.21901        2.71165
H          7.51702       -0.96310        2.08464
H          6.59912        0.48986        2.51517
H          8.33388       -0.95028        4.40833
H          6.70113       -1.01097        4.38421
H          9.65261        4.51450        1.27181
H          8.41200        4.23457        2.50988
H          8.28208        6.37476        0.27861
H          8.53853        6.72435        2.00852
H          6.98457        6.09384        1.44316
