18

S          0.93391       -0.12446        0.02164
C          2.78545       -0.19371        0.07067
C          3.32501       -0.64970       -1.28323
C          4.85426       -0.71237       -1.33105
B          5.43954       -1.20349       -2.78889
O          4.83365       -2.57594       -3.04191
N          6.99453       -1.18668       -2.76072
H          0.72895        0.30298        1.29131
H          3.08390       -0.89266        0.86480
H          3.15866        0.80924        0.32268
H          2.96387        0.04004       -2.06662
H          2.91549       -1.64224       -1.53212
H          5.21062       -1.40733       -0.54094
H          5.27807        0.27951       -1.08914
H          5.08028       -0.40136       -3.68957
H          5.03784       -2.82127       -3.95441
H          7.38134       -1.33892       -3.69557
H          7.34078       -1.96886       -2.19382
