26

F          1.92950       -0.58798       -1.26201
S          2.61393        0.30953       -0.03476
O          3.68226        1.04817       -0.69510
O          1.49148        1.04646        0.52399
Ga         3.52700       -1.29383        1.50703
S          1.91618       -3.02952        2.09974
O          2.62196       -4.29010        2.36840
O          1.05247       -2.46449        3.14499
C          0.56484       -3.49863        0.75289
C          1.02739       -4.32654       -0.47477
F          1.47797       -5.54049       -0.10957
F         -0.01098       -4.51535       -1.33617
F          2.00251       -3.67986       -1.14099
F         -0.37606       -4.22495        1.41402
F         -0.00068       -2.34929        0.30797
C          5.35658       -2.09266        0.91719
C          5.60531       -3.13064       -0.21652
C          5.49651       -2.61058       -1.68777
F          4.32165       -1.99807       -1.90147
F          6.49476       -1.75637       -1.98596
F          5.58777       -3.66327       -2.53886
F          6.86793       -3.65772       -0.09893
F          4.71681       -4.15178       -0.07393
F          6.23095       -1.03925        0.69220
F          5.80876       -2.72564        2.06993
H          3.67375       -0.51342        2.84688
