18

C          1.02517       -0.04609        0.10527
N          2.43575       -0.05361        0.09345
C          2.91306        0.77943       -0.93090
C          4.45521        0.80668       -1.01188
C          4.99913       -0.60840       -1.23075
C          4.95738        1.78632       -2.07873
H          0.62038       -0.69132        0.90982
H          0.53295       -0.40516       -0.86231
H          0.54955        0.98274        0.25981
H          2.56883        1.86966       -0.84368
H          2.53704        0.49260       -1.97884
H          4.80708        1.15272       -0.02189
H          4.70875       -0.98072       -2.22963
H          4.54010       -1.26966       -0.48168
H          6.10027       -0.65333       -1.15748
H          4.62700        1.47263       -3.08363
H          6.05851        1.85249       -2.09581
H          4.55664        2.79745       -1.90103
