15

N          1.17755       -0.14802       -0.10925
C          2.54281        0.02885       -0.01297
O          3.00426        1.02462        0.54069
C          3.35372       -1.09351       -0.63758
C          4.86384       -0.94294       -0.55329
S          5.67444       -2.38165       -1.35101
O          5.18096       -3.54586       -0.58134
O          5.18600       -2.34281       -2.74777
O          7.11733       -2.12033       -1.20239
H          0.56987        0.55829        0.28580
H          0.77445       -0.95969       -0.55774
H          3.06387       -1.19430       -1.69796
H          3.06409       -2.04774       -0.16395
H          5.21543       -0.90965        0.48612
H          5.21687       -0.04306       -1.07337
