18

C          4.19805       -1.17764        0.93555
Al         2.68635       -0.06813        0.27961
S          3.97920        1.11293       -1.47607
O          4.95570        2.00810       -0.81890
O          4.49177        0.21860       -2.53689
C          2.86926        2.44001       -2.44980
C          2.24752        1.98687       -3.79370
F          3.19822        1.78328       -4.72807
F          1.52962        0.85977       -3.64676
F          1.40177        2.94773       -4.28419
F          1.84893        2.80797       -1.61615
F          3.63007        3.54164       -2.70271
S          0.94615       -1.14498       -0.69478
H          4.94179       -0.55379        1.45363
H          4.71523       -1.70604        0.12113
H          3.83340       -1.93495        1.64745
H          2.08517        1.09451        1.21278
H          1.71928       -2.01419       -1.38781
