58

C          2.57384       -0.10284       -1.80689
C          2.92951        0.01909       -0.32387
C          3.13113        1.49226        0.13633
N          2.13210        2.45404       -0.29328
C          0.85589        2.37248        0.07310
C         -0.03370        3.41599       -0.40414
C         -1.37836        3.45897       -0.10992
C         -2.02369        2.46646        0.68975
C         -1.17380        1.43895        1.17182
C          0.18315        1.37752        0.89321
Si        -3.76358        2.64907        1.24398
C         -3.87682        3.94085        2.66911
C         -2.75348        3.70837        3.68500
C         -2.82433        4.44021        5.01731
C         -2.23546        5.89622        5.13761
C         -2.81566        7.10809        4.31156
C         -4.31870        7.57382        4.45322
C         -4.91008        8.05186        5.84143
C         -4.23283        9.25593        6.59700
F         -4.05253       10.30996        5.77924
F         -5.05579        9.63553        7.60090
F         -3.05410        8.91099        7.13401
F         -6.18680        8.45020        5.56473
F         -4.96986        7.00835        6.70042
F         -4.45458        8.62444        3.59153
F         -5.13439        6.57919        4.02770
F         -2.04929        8.19463        4.63731
F         -2.62765        6.85652        2.99156
F         -2.28742        6.26677        6.45350
F         -0.92204        5.83361        4.77607
F         -4.10604        4.47628        5.52517
F         -2.07368        3.73812        5.94748
C         -4.93731        3.28744       -0.10384
C         -4.48018        1.03047        1.93486
C          3.45741        1.55883        1.64606
H          2.46755       -1.15559       -2.11216
H          3.34905        0.35720       -2.44050
H          1.63111        0.41888       -2.01860
H          3.86684       -0.52959       -0.11557
H          2.14877       -0.47457        0.27658
H          4.06377        1.81126       -0.37679
H          0.42520        4.18817       -1.02673
H         -1.96684        4.29140       -0.51429
H         -1.59574        0.64427        1.79859
H          0.74984        0.54751        1.31343
H         -4.86422        3.87625        3.15225
H         -3.80202        4.93802        2.21572
H         -1.77184        3.90426        3.22878
H         -2.72485        2.64756        3.98299
H         -4.55683        4.21790       -0.54907
H         -5.94069        3.49111        0.30034
H         -5.03313        2.54799       -0.91135
H         -3.91786        0.66757        2.80715
H         -4.44985        0.23983        1.17209
H         -5.52629        1.17181        2.24485
H          2.61508        1.22353        2.26822
H          3.68091        2.59817        1.92565
H          4.33399        0.93566        1.89371
