38

N          3.08419       -6.22757       -3.49024
C          2.99116       -4.83661       -3.00010
C          4.08427       -4.54040       -1.97188
C          4.04547       -3.10585       -1.43815
Ga         5.33413       -2.63018        0.03200
S          4.25123       -3.70977        2.02863
O          5.09155       -3.80637        3.22691
O          2.83615       -3.39032        2.23861
F          4.18005       -5.36191        1.49894
C          7.20136       -3.38830        0.10816
C          7.35827       -4.91132        0.07068
C          8.82039       -5.37146        0.15006
C          8.98302       -6.89032        0.12043
N         10.39703       -7.25459        0.14297
C         10.81862       -8.56888        0.08732
N         10.10481       -9.64254        0.15035
N         12.21598       -8.68308       -0.06126
H          2.26765       -6.45565       -4.06034
H          3.05029       -6.86003       -2.68694
H          2.00987       -4.59806       -2.54221
H          3.10858       -4.16416       -3.86746
H          5.06163       -4.75997       -2.43400
H          3.97412       -5.24988       -1.13307
H          3.04050       -2.87438       -1.04722
H          4.22417       -2.38916       -2.26070
H          5.23736       -1.11753        0.51745
H          7.66112       -2.98867        1.02730
H          7.75597       -2.93242       -0.73379
H          6.90839       -5.31808       -0.85113
H          6.79392       -5.36292        0.90241
H          9.28081       -4.97620        1.07120
H          9.38311       -4.93273       -0.69584
H          8.48123       -7.30234       -0.77684
H          8.48896       -7.33488        0.99967
H         11.01019       -6.58879       -0.31998
H          9.10619       -9.41929        0.13156
H         12.73934       -8.05973        0.55026
H         12.49494       -9.65202        0.07262
