21

C          2.73078        0.23746       -1.51381
C          2.37520       -0.02305       -0.04597
C          3.07267        0.83412        1.01791
S          2.32178        2.64614        1.00579
O          2.94902        3.44182        2.05384
O          2.32939        3.15730       -0.37078
C          0.44053        2.73095        1.45835
F         -0.29397        1.78412        0.83089
F          0.20355        2.68037        2.77091
F         -0.00112        3.94189        1.01001
C          2.78419        0.24933        2.47375
O          3.81696       -0.10661        3.09530
O          1.57201        0.18363        2.77383
N          4.44578        1.08403        0.83782
H          2.20281       -0.48183       -2.15769
H          3.80727        0.10152       -1.70929
H          2.45700        1.25310       -1.82325
H          2.64663       -1.06143        0.21365
H          1.29144        0.04544        0.11290
H          4.84021        0.79506       -0.05146
H          4.92567        0.71780        1.67234
