41

N          5.38417        0.28258       -3.97626
C          4.56403        0.05853       -2.77180
C          5.00041       -1.21044       -2.04368
C          4.30587       -1.37996       -0.69180
C          4.55504       -2.71752        0.05562
C          5.96504       -3.14875        0.43662
C          6.65070       -2.51070        1.47162
C          6.18464       -1.24659        2.02342
C          7.01504       -0.38671        2.70435
C          8.36304       -0.73336        2.98733
C          8.75120       -2.04217        2.73111
C          7.90521       -2.98520        2.09566
C          8.17188       -4.40645        2.33034
O          7.35359       -5.30164        2.50075
O          9.52858       -4.76865        2.42456
C          6.44530       -4.45328       -0.16227
C          6.39220       -4.56973       -1.69856
C          7.41630       -3.75742       -2.49085
O          7.58952       -3.92740       -3.70271
N          8.14128       -2.86093       -1.76319
H          4.95754        0.99079       -4.57504
H          5.42676       -0.57776       -4.52669
H          3.47676       -0.00809       -2.98698
H          4.69982        0.92736       -2.10510
H          6.09031       -1.18079       -1.90486
H          4.79206       -2.08024       -2.69303
H          3.21290       -1.28481       -0.83666
H          4.60335       -0.53683       -0.04967
H          4.10298       -3.51849       -0.55552
H          3.92784       -2.67479        0.96966
H          5.14644       -0.95283        1.86067
H          6.61929        0.57123        3.05520
H          9.02407       -0.04716        3.51770
H          9.69774       -2.38623        3.16157
H         10.04213       -4.00332        2.11348
H          5.89281       -5.31270        0.26872
H          7.48477       -4.64106        0.13646
H          5.40286       -4.29838       -2.10166
H          6.55040       -5.61669       -2.00262
H          7.80633       -2.59366       -0.83274
H          8.73821       -2.22236       -2.27681
