22

O          2.48631       -0.55697       -1.27296
C          1.99388        0.39243       -0.39639
O          0.80797        0.42451       -0.16628
C          3.02061        1.32227        0.17690
C          4.07506        1.75032       -0.65557
C          5.04118        2.63677       -0.18159
C          4.96086        3.08653        1.13830
C          3.91422        2.65558        1.95880
C          2.91041        1.77865        1.50937
Ga         1.56570        1.29121        2.94418
S         -0.22735        2.96716        2.56907
O          0.35429        4.28180        2.28523
O         -1.44071        2.59944        1.84525
F         -0.78104        3.13952        4.17097
S          0.67562       -0.78722        3.06612
H          3.45829       -0.50589       -1.24735
H          4.11513        1.42789       -1.70046
H          5.84140        2.97913       -0.84039
H          5.71052        3.77946        1.52719
H          3.86734        3.01851        2.98929
H          2.11499        1.74954        4.34896
H          0.22911       -0.79564        1.78826
