32

C          2.79541       -0.31529       -0.55829
C          1.30989       -0.18849       -0.32383
C          0.43352       -1.25407       -0.57011
C         -0.94109       -1.14041       -0.35982
C         -1.52716        0.04540        0.14789
C         -0.62614        1.11305        0.39875
C          0.74100        1.00175        0.15653
C         -2.98004        0.17988        0.37912
C         -3.69503       -0.82522        1.17457
C         -3.92988       -0.49366        2.71258
C         -4.73513       -1.50598        3.59733
F         -6.02340       -1.60781        3.20966
F         -4.19175       -2.74198        3.58880
F         -4.74169       -1.08152        4.89556
F         -2.70169       -0.37430        3.31064
F         -4.57963        0.69906        2.84555
F         -4.98250       -1.15430        0.70231
F         -3.00378       -2.03438        1.22615
C         -3.66133        1.40543       -0.00344
C         -3.53183        1.85077       -1.50353
F         -4.04377        0.89769       -2.32658
F         -4.23635        2.99281       -1.75110
F         -2.25814        2.08095       -1.89546
F         -5.02265        1.38263        0.21386
F         -3.23412        2.63256        0.69822
H          3.03779       -1.26526       -1.05602
H          3.36372       -0.28416        0.38651
H          3.18106        0.50128       -1.18936
H          0.83365       -2.19370       -0.96457
H         -1.58383       -1.98101       -0.61554
H         -1.02124        2.04554        0.79983
H          1.38765        1.85974        0.36689
