62

C          9.32821        0.75423        5.74561
C          8.72601        0.52512        4.35730
C          9.27853       -0.71831        3.65334
C          8.68939       -0.95069        2.25908
C          9.25187       -2.18445        1.54658
C          8.67630       -2.40053        0.14386
C          9.24732       -3.62737       -0.57784
C          8.69120       -3.82752       -1.99463
Si         9.32105       -5.38328       -2.90408
C          8.83846       -6.93304       -1.97933
C          7.47707       -7.24160       -1.74843
C          7.09967       -8.39556       -1.06338
C          8.03480       -9.33513       -0.56556
C          9.38763       -9.00945       -0.80304
C          9.78427       -7.85184       -1.48078
B          7.58183      -10.64344        0.31545
C          6.56603      -11.68566       -0.48606
C          7.17781      -12.39102       -1.71368
C          7.40451      -11.52301       -2.95676
C          6.05574      -12.76361        0.48520
N          6.89555      -10.16348        1.64699
C          8.54924       -5.35442       -4.63932
C         11.20591       -5.26713       -3.09728
H          8.91406        1.65262        6.22567
H         10.42018        0.87975        5.68857
H          9.13045       -0.10038        6.40996
H          8.90973        1.41051        3.72476
H          7.62948        0.43618        4.44100
H          9.09039       -1.60618        4.28234
H         10.37712       -0.63207        3.57507
H          8.87006       -0.05679        1.63530
H          7.59195       -1.04576        2.33916
H          9.06049       -3.08144        2.16075
H         10.35086       -2.09454        1.47820
H          8.86118       -1.49942       -0.46903
H          7.57836       -2.50105        0.21007
H          9.04528       -4.52966        0.02357
H         10.34713       -3.53390       -0.61906
H          8.91029       -2.93960       -2.61582
H          7.58948       -3.89824       -1.94965
H          6.69662       -6.56409       -2.11708
H          6.03076       -8.58447       -0.90872
H         10.15202       -9.70246       -0.43524
H         10.85318       -7.66187       -1.62776
H          8.61811      -11.27024        0.61647
H          5.67460      -11.12327       -0.84736
H          6.52811      -13.24185       -2.00701
H          8.14017      -12.84282       -1.40835
H          6.46692      -11.03815       -3.27476
H          7.77072      -12.12660       -3.80385
H          8.13296      -10.72373       -2.77040
H          6.89859      -13.38289        0.83911
H          5.32141      -13.44347        0.01070
H          5.60284      -12.31183        1.37804
H          6.06565       -9.59376        1.44755
H          7.52182       -9.53352        2.15472
H          7.45555       -5.45441       -4.58293
H          8.92449       -6.19253       -5.24373
H          8.77787       -4.41770       -5.17023
H         11.71778       -5.24221       -2.12503
H         11.48434       -4.35703       -3.64975
H         11.59481       -6.13124       -3.65499
