15

F          1.79097        0.36719       -0.22841
N          2.04637       -0.07190        1.16971
S          2.65832       -1.54610        1.11018
O          2.65150       -2.00982        2.49569
O          2.24192       -2.43159        0.02639
C          4.58644       -1.45947        0.83132
C          5.20950       -1.44434       -0.60800
C          4.75400       -0.34139       -1.62601
F          4.75295        0.88148       -1.06475
F          5.64324       -0.31597       -2.66292
F          3.54937       -0.60194       -2.13927
F          6.57203       -1.27744       -0.46137
F          5.01597       -2.64791       -1.21012
F          5.07080       -0.36384        1.49244
F          5.14822       -2.56665        1.42293
