63

N          4.03638       -1.00997       -0.41409
C          3.05537        0.03354       -0.21192
C          3.16756        0.91829        0.84856
C          2.23881        2.00984        1.10515
C          2.44477        2.94082        2.09660
C          3.56154        2.90413        3.00004
C          4.43612        1.79302        2.80848
C          4.26255        0.85166        1.81454
Si         3.80368        4.15684        4.31220
C          2.56643        3.99077        5.78750
C          1.10952        3.87024        5.32468
C          0.11727        3.78130        6.46788
C         -1.40780        3.81314        6.09267
C         -2.03059        2.69712        5.17229
C         -2.07697        1.18120        5.62563
C         -2.79655        0.82939        6.98104
C         -3.17052       -0.69257        7.14392
F         -2.10974       -1.48503        6.91177
F         -3.58404       -0.89584        8.41603
F         -4.17283       -1.04724        6.32112
F         -1.98601        1.14965        8.01876
F         -3.95851        1.52835        7.09218
F         -2.75334        0.53203        4.63107
F         -0.81577        0.69362        5.66966
F         -3.32001        3.07631        4.93175
F         -1.36812        2.70304        3.98400
F         -2.15154        3.84297        7.24146
F         -1.63729        4.98689        5.42675
F          0.32276        2.65725        7.23627
F          0.26182        4.86128        7.32288
C          5.52358        4.04830        5.11252
C          3.56426        5.93837        3.67395
C          1.96560        0.01435       -1.23304
C          1.12031       -1.28512       -1.25647
C          0.37428       -1.54300        0.05430
C         -0.27690       -2.92103        0.11124
N         -1.00209       -3.11228        1.38216
H          4.93077       -0.73747        0.00210
H          4.21019       -1.12711       -1.41996
H          1.35520        2.12028        0.47256
H          1.70979        3.75043        2.18302
H          5.28952        1.66346        3.48414
H          4.96067        0.01091        1.78592
H          2.68414        4.85311        6.46473
H          2.84472        3.09065        6.35843
H          0.99236        2.98193        4.68670
H          0.81383        4.73798        4.71491
H          5.69302        3.05973        5.56366
H          5.63617        4.80263        5.90603
H          6.31530        4.21547        4.36833
H          2.58602        6.06642        3.18646
H          4.33031        6.17133        2.92005
H          3.63782        6.68205        4.48328
H          2.39703        0.13189       -2.25742
H          1.29489        0.87369       -1.09112
H          1.79153       -2.13770       -1.45766
H          0.40402       -1.24176       -2.09802
H         -0.39603       -0.77026        0.21600
H          1.09554       -1.44130        0.88403
H          0.50853       -3.68524       -0.06445
H         -1.00851       -3.02616       -0.70922
H         -0.36528       -2.92469        2.16029
H         -1.29326       -4.08631        1.48102
