17

Al         1.18133        0.32156        0.27863
C          0.28529        1.05630       -1.37432
N         -1.14002        1.36875       -1.08370
C         -0.04425       -1.00372        1.27296
C         -0.61370       -2.03270        0.38210
O         -1.79037       -2.13839        0.05261
O          0.29574       -2.91941       -0.15810
S          3.00578       -1.04268       -0.31020
H          1.75129        1.39804        1.35527
H          0.41394        0.36443       -2.23489
H          0.79110        1.99520       -1.66355
H         -1.60370        0.53687       -0.71142
H         -1.64948        1.60467       -1.93948
H         -0.84530       -0.47508        1.80404
H          0.65786       -1.44397        1.99764
H          1.20758       -2.55288       -0.01939
H          2.62175       -1.20781       -1.59736
