32

C          2.49628       -1.96364       -2.00341
C          2.17377       -2.16319       -0.51139
C          2.79481       -1.04260        0.33631
In         2.84106       -1.22730        2.54010
S          1.04731        0.60633        3.45912
O          1.09909        0.87925        4.90960
O          1.27066        1.74685        2.53932
C         -0.84972        0.27050        3.18959
F         -1.08421       -0.25688        1.95692
F         -1.34956       -0.59402        4.10525
F         -1.55218        1.42338        3.28567
C          2.65577       -3.44834        3.23483
C          1.69601       -3.93008        4.34997
C          0.21439       -4.16582        3.90911
F         -0.25268       -3.13044        3.18441
F          0.08843       -5.29080        3.17263
F         -0.57419       -4.30545        5.00185
F          2.10758       -5.11802        4.91478
F          1.68801       -2.99468        5.34623
F          2.46772       -4.31901        2.15282
F          3.93596       -3.74544        3.71422
C          0.65716       -2.26166       -0.31263
H          3.58249       -1.92754       -2.17521
H          2.06946       -1.01487       -2.36757
H          2.08102       -2.77820       -2.61934
H          2.61459       -3.12781       -0.20636
H          2.29847       -0.08030        0.12940
H          3.85654       -0.91059        0.06786
H          4.11773       -0.53322        3.51475
H          0.16684       -1.31574       -0.59278
H          0.39805       -2.46699        0.73417
H          0.22377       -3.06398       -0.92959
