21

O          1.16746       -0.43023        0.03020
C          2.39948       -0.38463       -0.05432
O          3.25918       -1.12173       -0.57825
C          3.11387        0.94960        0.71867
C          2.44841        2.22724        0.14990
C          3.29149        3.57264        0.20343
C          2.42936        4.88605        0.09608
F          1.59121        4.85561       -0.95824
F          1.71187        5.11773        1.21287
F          3.26167        5.94964       -0.07233
F          3.98029        3.68711        1.37705
F          4.18338        3.62961       -0.82004
F          2.19982        2.05434       -1.19305
F          1.24214        2.51392        0.74213
C          2.90247        0.71287        2.22214
F          3.38061       -0.52004        2.56796
F          3.61855        1.59725        3.01770
F          1.62890        0.77905        2.65769
N          4.52069        0.95557        0.37140
H          4.67699        0.02438       -0.04771
H          5.12498        1.10109        1.17845
