21

N          0.96525        0.25154        0.03611
C          2.40497       -0.09585       -0.01260
C          3.06922        0.36349        1.28983
C          4.58663        0.47165        1.25374
S          5.32091       -1.21804        0.92049
O          4.74017       -2.18080        1.86392
O          5.21174       -1.50226       -0.51036
C          7.05544       -1.01616        1.33250
C          5.18064        1.61960        0.29614
O          4.30955        2.34493       -0.23354
O          6.43296        1.67308        0.24588
F          5.01756        0.75735        2.57598
H          0.51753       -0.07888       -0.82131
H          0.88986        1.27210        0.00562
H          2.93218        0.36611       -0.86096
H          2.48523       -1.18745       -0.11426
H          2.76911       -0.28964        2.12253
H          2.73046        1.38868        1.50586
H          7.14750       -0.94894        2.42103
H          7.37464       -0.08601        0.83904
H          7.54901       -1.91410        0.94100
