23

C          0.94655        0.27547       -0.14657
Al         2.65982       -0.72916        0.03580
C          3.79768        0.38096        1.42198
C          4.99830       -0.17861        2.23131
C          6.26602       -0.67995        1.44866
C          7.06863        0.33550        0.55931
F          7.39690        1.44678        1.25294
F          8.22739       -0.26116        0.17018
F          6.39839        0.68678       -0.54017
F          7.15683       -1.13958        2.38713
F          5.91868       -1.72428        0.65633
F          5.45135        0.73612        3.15887
F          4.56691       -1.27275        2.93568
F          4.24262        1.61011        0.90768
F          2.88627        0.73514        2.44084
C          3.56690       -0.69272       -1.83603
F          2.69762       -1.21798       -2.80015
F          3.87472        0.57447       -2.32094
F          4.73633       -1.41826       -2.01713
H          0.37850        0.29169        0.79617
H          0.30594       -0.18441       -0.91560
H          1.11956        1.32098       -0.44570
H          2.58818       -2.26585        0.54160
