45

C          0.55898       -0.56436       -0.92208
C          2.08594       -0.44458       -0.91212
C          2.79364       -1.64435       -0.27345
C          4.31857       -1.51427       -0.25029
C          5.00673       -2.75015        0.34429
C          6.55703       -2.73890        0.41736
C          7.16033       -2.11694       -0.92651
O          8.00659       -1.19171       -0.79529
O          6.73132       -2.64656       -1.98872
C          7.11570       -2.04205        1.67885
C          6.76137       -0.55818        1.94411
C          5.55558       -0.39446        2.88314
C          7.98050        0.18259        2.50958
C          7.00455       -4.22396        0.44194
C          8.51963       -4.46569        0.45223
C          8.87863       -5.88960        0.03980
N         10.34084       -6.10476        0.09448
H          0.08110        0.31012       -1.38899
H          0.15986       -0.65483        0.10056
H          0.23382       -1.45736       -1.47859
H          2.37979        0.47447       -0.37607
H          2.45456       -0.31929       -1.94408
H          2.51410       -2.56383       -0.82002
H          2.41503       -1.78119        0.75745
H          4.58724       -0.60057        0.30159
H          4.70047       -1.38222       -1.27459
H          4.71275       -3.60615       -0.28590
H          4.60031       -2.95848        1.35412
H          8.20970       -2.10517        1.60528
H          6.82663       -2.63612        2.57082
H          6.53805       -0.09269        0.97280
H          5.78407       -0.80277        3.88255
H          4.66420       -0.91896        2.51268
H          5.28772        0.66693        3.01248
H          8.32551       -0.27885        3.45131
H          7.75255        1.24018        2.72245
H          8.80380        0.14484        1.78349
H          6.58672       -4.67851       -0.47039
H          6.54309       -4.73651        1.30974
H          8.95461       -4.26283        1.44386
H          8.99517       -3.76154       -0.25254
H          8.44833       -6.07800       -0.96363
H          8.40908       -6.61303        0.72958
H         10.79574       -5.37848       -0.46429
H         10.57917       -6.99151       -0.35348
