35

C          3.68395        4.38724        0.66722
C          3.74163        2.90782        0.27524
C          3.73807        1.95507        1.48269
C          3.81025        0.47840        1.12110
Sb         4.23772       -0.90376        2.84458
C          4.68397       -2.51199        4.42810
C          3.77105       -2.44625        5.49099
C          3.86039       -3.27432        6.61227
C          4.90526       -4.20100        6.70266
C          5.82938       -4.28749        5.66594
C          5.72324       -3.46626        4.52304
C          6.79693       -3.73193        3.48756
O          7.87115       -4.23580        3.79360
O          6.54295       -3.46561        2.19627
C          6.39307       -0.25911        2.81704
H          3.70642        5.04889       -0.21216
H          4.53611        4.65724        1.31004
H          2.76580        4.61195        1.23172
H          4.65084        2.71872       -0.32112
H          2.89185        2.66271       -0.38481
H          2.83624        2.14862        2.09033
H          4.59121        2.22290        2.13320
H          4.64344        0.27858        0.42767
H          2.88059        0.12102        0.65062
H          3.88127        0.29440        4.13821
H          2.53725       -1.49328        2.90874
H          4.58938       -2.22438        1.55015
H          2.95700       -1.71324        5.43406
H          3.12297       -3.19573        7.41604
H          4.99828       -4.85247        7.57457
H          6.66163       -4.99268        5.70845
H          5.65125       -3.00252        2.02682
H          6.41719        0.83185        2.68735
H          6.93016       -0.74583        1.99315
H          6.86533       -0.52291        3.77210
