49

N          4.70190        2.65168       -1.48564
C          3.19889        2.63094       -1.56917
C          2.43525        1.81067       -0.55850
C          2.30830        2.29733        0.75246
C          2.81116        3.60885        1.14169
C          2.66223        4.13517        2.40963
C          2.03292        3.43404        3.47974
C          1.57182        2.13009        3.13079
C          1.70016        1.58953        1.86631
Si         1.74146        4.18023        5.13333
C          0.07436        5.14517        5.21041
C         -1.10428        4.31411        4.69411
C         -2.42832        5.03944        4.68847
F         -2.42002        6.16357        3.91470
F         -3.44281        4.25134        4.21084
F         -2.82012        5.43885        5.94043
C          1.64516        2.86419        6.50528
C          3.06187        5.45596        5.62305
C          1.85865        0.51082       -1.11380
C          2.82905       -0.70989       -1.06427
C          3.26024       -1.15397        0.33600
C          0.44034        0.10092       -0.65416
H          5.00829        1.67514       -1.43731
H          4.93933        3.01953       -0.55927
H          2.96212        2.27792       -2.58788
H          2.89809        3.69528       -1.54662
H          3.31996        4.22754        0.39924
H          3.06396        5.13957        2.58886
H          1.10334        1.50298        3.89878
H          1.34212        0.57293        1.71964
H          0.18474        6.04796        4.58833
H         -0.11854        5.48686        6.24133
H         -1.25737        3.40890        5.30207
H         -0.91323        3.97555        3.66400
H          0.87129        2.11112        6.29588
H          1.41201        3.32093        7.47950
H          2.60148        2.32987        6.59625
H          3.15169        6.24679        4.86410
H          4.04763        4.97974        5.72307
H          2.81368        5.93823        6.58105
H          1.74145        0.70526       -2.19846
H          3.73032       -0.44486       -1.64303
H          2.36421       -1.56242       -1.59863
H          3.70169       -0.31125        0.88591
H          4.00391       -1.96427        0.28470
H          2.41096       -1.52660        0.92761
H          0.41892       -0.40337        0.32044
H         -0.00152       -0.59593       -1.38583
H         -0.21172        0.98194       -0.57896
