32

C          2.82198       -1.98342        1.08147
C          2.33063       -0.91974        0.08412
C          3.29210       -0.61735       -1.08356
Al         2.49578        0.65115       -2.45585
S          3.93257        0.02285       -4.37486
O          5.37358        0.14750       -4.13736
O          3.48240       -1.19047       -5.06516
F          3.63990        1.24354       -5.53890
C          0.62740        0.33927       -3.18762
C         -0.49848        0.39395       -2.13257
C         -0.59521        1.70902       -1.34513
C          0.32522        1.28303       -4.36597
C          4.64574       -0.06768       -0.59477
H          2.07266       -2.18044        1.86507
H          3.75120       -1.67664        1.58301
H          3.02500       -2.93431        0.56403
H          2.12034        0.01275        0.64146
H          1.35782       -1.25340       -0.31409
H          3.48002       -1.57462       -1.60854
H          2.89119        2.20548       -2.20382
H          0.63915       -0.69133       -3.58857
H         -0.37715       -0.43506       -1.41545
H         -1.47686        0.21937       -2.62914
H          0.32854        1.90948       -0.78071
H         -1.42969        1.68678       -0.62687
H         -0.75535        2.56818       -2.01293
H          0.39536        2.34419       -4.07726
H         -0.69662        1.12303       -4.76584
H          1.03209        1.13807       -5.19440
H          4.51032        0.88758       -0.05949
H          5.32323        0.13075       -1.43765
H          5.17570       -0.75392        0.09134
