18

F          0.92022       -2.26952       -1.04182
N          2.41989       -2.26182       -0.69995
C          2.78145       -0.91860       -0.95999
C          4.32064       -0.86878       -0.89040
C          4.90678       -1.75878       -1.99661
C          6.39058       -1.95078       -1.93300
C          6.98718       -2.82964       -3.07199
F          6.46981       -4.07992       -3.05292
F          6.72642       -2.29363       -4.29212
F          8.33569       -2.94618       -2.96103
F          7.08920       -0.73938       -2.00739
F          6.79757       -2.53986       -0.75083
H          2.38971       -0.13386       -0.23926
H          2.47320       -0.54198       -1.97987
H          4.63868       -1.25143        0.09248
H          4.67572        0.16820       -0.98518
H          4.66223       -1.33828       -2.98512
H          4.38203       -2.72906       -1.91826
