15

F          0.88947        0.13394        0.14822
C          2.22446       -0.04878       -0.22391
N          2.43961       -0.68674       -1.39681
S          2.00537       -2.16396       -1.70607
O          2.75200       -3.21513       -1.01889
O          0.57250       -2.39247       -1.87528
C          2.71374       -2.21430       -3.46286
C          2.31084       -1.07685       -4.45827
F          2.93065        0.08371       -4.19014
F          2.67944       -1.44137       -5.72692
F          0.98169       -0.86878       -4.47464
F          4.07757       -2.24219       -3.42482
F          2.29276       -3.39337       -4.01806
F          2.74886        1.22799       -0.27444
F          2.79833       -0.62270        0.91258
