56

C         10.88500        1.36023        1.98112
C          9.61589        1.21755        2.82470
C          8.58498        0.26675        2.20982
C          7.30909        0.12952        3.04738
C          6.32147       -0.93266        2.52961
C          6.85434       -2.37308        2.64584
Ta         7.29936       -3.08067        4.66413
C          5.43882       -4.10830        5.35250
C          4.51387       -4.59164        4.39113
C          3.32391       -5.24128        4.74470
C          3.00368       -5.47375        6.08695
C          3.90165       -5.02060        7.05666
C          5.07368       -4.34272        6.69570
C          3.61176       -5.23570        8.51475
F          2.41712       -5.85939        8.74234
F          4.56514       -6.00364        9.12916
F          3.57042       -4.06239        9.21849
C          2.34814       -5.70346        3.70109
F          2.80096       -5.55257        2.42649
F          2.02065       -7.02877        3.84007
F          1.15368       -5.02596        3.76415
C          9.46685       -3.65621        4.38716
C          9.75669       -4.80540        3.41237
C         11.24090       -5.00866        3.00832
C         12.08813       -5.74289        4.02813
C         13.56301       -5.99255        3.57689
F         13.60851       -6.73604        2.44319
F         14.19625       -4.82051        3.32725
F         14.26737       -6.64803        4.52572
F         12.17841       -5.07768        5.22679
F         11.56885       -6.99213        4.30240
H         11.61695        2.02995        2.45577
H         10.65817        1.76559        0.98272
H         11.37303        0.38427        1.83666
H          9.15735        2.21048        2.97495
H          9.87936        0.84809        3.82935
H          9.05636       -0.72233        2.08495
H          8.32215        0.61117        1.19217
H          6.80215        1.10985        3.08790
H          7.58736       -0.11808        4.08786
H          6.05461       -0.69249        1.48134
H          5.38275       -0.84237        3.10080
H          7.78054       -2.49933        2.05451
H          6.12852       -3.08724        2.21120
H          7.48588       -4.83845        4.84918
H          8.35276       -1.96961        5.56776
H          6.49523       -2.09596        5.91805
H          4.71903       -4.47126        3.32452
H          2.08478       -5.98596        6.36675
H          5.72226       -3.97134        7.49394
H          9.93611       -3.85291        5.36328
H          9.95828       -2.73030        4.01767
H          9.21773       -4.64460        2.46114
H          9.35720       -5.75077        3.80961
H         11.71956       -4.03562        2.81835
H         11.31273       -5.59651        2.07852
