40

N          0.86485       -0.13265        0.54246
C          2.27401       -0.09515        0.04752
C          3.11825       -1.24356        0.56810
Ga         4.99376       -1.26352       -0.27705
C          5.99396        0.46886        0.23317
C          5.93300        0.87195        1.70621
C          6.55654        2.26098        1.96589
C          6.54167        2.70475        3.41132
C          7.12914        4.12557        3.66905
F          8.41844        4.19952        3.25714
F          6.42494        5.06848        2.99646
F          7.09962        4.45169        4.98283
F          5.26074        2.73470        3.92434
F          7.26967        1.84796        4.21308
C          6.03988       -2.96341        0.17171
C          6.40404       -3.22560        1.63436
C          7.17568       -4.53319        1.87951
C          7.54108       -4.77750        3.34705
H          0.40811        0.76792        0.36438
H          0.89429       -0.23308        1.56057
H          2.76769        0.86621        0.29934
H          2.22796       -0.13855       -1.05400
H          2.62210       -2.20088        0.33177
H          3.18915       -1.18449        1.67137
H          4.80288       -1.21961       -1.89135
H          5.54960        1.27046       -0.38482
H          7.04777        0.38569       -0.09017
H          6.45127        0.12687        2.33063
H          4.88725        0.88830        2.05311
H          6.02036        3.02124        1.37666
H          7.60405        2.27122        1.62671
H          6.96318       -2.94432       -0.43724
H          5.44674       -3.81304       -0.21528
H          5.48780       -3.24054        2.25393
H          7.01011       -2.38817        2.02860
H          8.09325       -4.52160        1.26518
H          6.57228       -5.37645        1.50013
H          8.16427       -3.95892        3.73991
H          8.09742       -5.71765        3.48657
H          6.63775       -4.82800        3.97504
