83

C          8.81611       -1.60213        4.95024
C          9.81670       -1.52570        3.79460
C          9.29412       -2.14405        2.49376
C         10.27999       -2.03644        1.32670
C          9.76619       -2.64463        0.01780
C         10.75064       -2.48220       -1.14506
C         10.29712       -3.10931       -2.47379
C          9.02853       -2.49058       -3.08322
Si         8.56776       -3.14430       -4.81306
C          8.39928       -5.01274       -4.78302
C          7.45085       -5.63084       -3.94052
C          7.31522       -7.02174       -3.89804
C          8.11444       -7.85544       -4.69052
C          9.05671       -7.24698       -5.52693
C          9.20383       -5.85759       -5.57567
P          8.01431       -9.78586       -4.59001
C          6.13272       -9.76283       -5.16357
C          5.78146       -9.37021       -6.45937
C          4.44068       -9.32759       -6.86697
C          3.41703       -9.68936       -5.98392
C          3.76002      -10.08657       -4.68835
C          5.10409      -10.12001       -4.28756
C          2.67871      -10.52506       -3.74205
F          1.47348       -9.93079       -3.99938
F          2.44780      -11.87814       -3.80571
F          2.97373      -10.25710       -2.43936
C          4.07963       -8.92878       -8.27012
F          5.00550       -8.11800       -8.84845
F          3.95191      -10.01541       -9.10338
F          2.88165       -8.26946       -8.34103
C          7.96987      -11.73610       -4.52544
C          9.30926      -12.33164       -4.15307
O          9.48408      -12.21415       -2.73376
C         10.80022      -12.47407       -2.30497
C         10.82999      -12.21303       -0.80515
O         12.13425      -12.50725       -0.30888
C         12.24397      -12.23369        1.07256
C          6.92957       -2.32712       -5.30587
C          9.90462       -2.61229       -6.04802
H          9.22159       -1.15459        5.86906
H          8.54945       -2.64544        5.17685
H          7.88407       -1.07149        4.70366
H         10.75428       -2.03038        4.08367
H         10.08579       -0.47147        3.60998
H          8.34422       -1.65459        2.21464
H          9.04606       -3.20568        2.66852
H         11.23095       -2.52367        1.60685
H         10.52487       -0.97200        1.15937
H          8.80173       -2.17694       -0.24163
H          9.55380       -3.71764        0.16841
H         11.71834       -2.92769       -0.85404
H         10.94513       -1.40529       -1.30218
H         10.13876       -4.19140       -2.33271
H         11.12975       -3.02233       -3.19193
H          9.13883       -1.39227       -3.15307
H          8.16239       -2.66416       -2.42230
H          6.80046       -5.01570       -3.30752
H          6.57324       -7.47530       -3.23109
H          9.69166       -7.88795       -6.15103
H          9.95631       -5.42354       -6.24196
H          7.53251       -9.67333       -3.18734
H          9.44108       -9.77870       -4.17215
H          8.42816       -9.84221       -6.02960
H          6.57547       -9.07765       -7.15352
H          2.37391       -9.64419       -6.29389
H          5.36118      -10.41319       -3.26456
H          7.67696      -12.08571       -5.52895
H          7.20808      -12.08087       -3.80773
H         10.12538      -11.77719       -4.66602
H          9.40109      -13.40305       -4.43722
H         11.52598      -11.81167       -2.81776
H         11.10004      -13.52381       -2.51100
H         10.07274      -12.84517       -0.30100
H         10.56883      -11.15542       -0.61085
H         13.27092      -12.47811        1.37561
H         11.53792      -12.84500        1.66894
H         12.04702      -11.16681        1.29489
H          6.12129       -2.62518       -4.62248
H          6.63126       -2.62932       -6.31996
H          7.00464       -1.22914       -5.28348
H         10.88788       -3.03364       -5.79534
H         10.00134       -1.51629       -6.06146
H          9.65462       -2.93930       -7.06752
