15

N          1.02641        0.21657       -0.10812
C          2.45179       -0.04922        0.04708
C          2.90828       -0.15138        1.50097
C          2.54333       -1.42722        2.33091
F          3.14936       -2.52812        1.86214
F          2.94051       -1.27120        3.63104
F          1.20690       -1.64877        2.35484
F          4.26809       -0.01225        1.61004
F          2.36101        0.91121        2.24959
C          2.84177       -1.36615       -0.80631
O          1.86265       -2.11961       -1.04563
O          4.04576       -1.45612       -1.12172
H          0.59759        0.55235        0.75375
H          0.62857       -0.70005       -0.36402
H          3.06908        0.77145       -0.35757
