31

C          0.79853        1.86037        1.16085
C          2.31603        2.05886        1.08947
C          3.07600        0.72768        1.19383
C          4.62545        0.78839        1.24069
C          5.14152       -0.74148        1.30423
O          4.77837       -1.44040        0.32215
O          5.82333       -1.06237        2.30937
C          5.08910        1.36373       -0.09146
O          6.56694        1.44874       -0.09078
C          7.12483        2.00199       -1.15155
F          6.77031        3.32605       -1.34946
F          8.47324        1.98151       -1.00786
F          6.83483        1.37969       -2.34113
C          5.15439        1.64043        2.41203
C          4.55743        1.30429        3.77781
N          5.29914        2.02691        4.83957
H          0.25379        2.81326        1.07756
H          0.50852        1.39035        2.11342
H          0.44849        1.20035        0.35227
H          2.63124        2.74158        1.89630
H          2.56346        2.57123        0.14516
H          2.80320        0.06871        0.35386
H          2.73595        0.20109        2.10162
H          4.71777        2.38523       -0.26939
H          4.79236        0.67732       -0.89657
H          5.00821        2.71866        2.21280
H          6.23973        1.46853        2.47269
H          4.58810        0.20906        3.89683
H          3.50627        1.63472        3.83637
H          6.27250        1.71133        4.80476
H          4.95185        1.72625        5.75311
