60

N          1.66950        1.24251       -1.19821
Ga         2.82647        0.42123        0.14133
C          3.94832       -1.06019       -0.72897
C          4.53148       -0.89249       -2.00259
C          5.22053       -1.91845       -2.65418
C          5.36540       -3.19276       -2.06188
C          4.81410       -3.36546       -0.77653
C          4.13282       -2.32441       -0.13583
Si         6.15563       -4.59847       -3.00434
C          7.97669       -4.20627       -3.43957
C          8.88705       -4.04980       -2.21487
C         10.33684       -3.80254       -2.59207
C         11.35899       -3.58695       -1.41732
C         11.54293       -4.69143       -0.30666
C         12.02580       -6.15658       -0.66478
C         13.41414       -6.33525       -1.38543
C         13.97759       -7.80808       -1.34454
F         13.05778       -8.69318       -1.77120
F         15.04860       -7.87673       -2.16173
F         14.37224       -8.15076       -0.10624
F         13.29404       -5.99207       -2.68893
F         14.34733       -5.54050       -0.79960
F         12.10450       -6.80874        0.53286
F         11.06863       -6.76249       -1.41025
F         12.42890       -4.18838        0.59583
F         10.34942       -4.85732        0.33068
F         12.59521       -3.34857       -1.94629
F         10.97096       -2.46945       -0.73800
F         10.83179       -4.83123       -3.36630
F         10.45261       -2.65974       -3.35149
C          6.11300       -6.20351       -1.99866
C          5.27085       -4.88287       -4.65396
C          1.70223       -0.43209        1.62485
C          0.29346        0.14808        1.76907
C         -0.46147       -0.48110        2.94146
S         -2.23679        0.00035        3.11142
H          1.48470        0.61525       -1.98490
H          2.13641        2.05469       -1.60765
H          3.77447        1.58766        0.71918
H          4.42446        0.07201       -2.51203
H          5.63802       -1.72890       -3.65088
H          4.90185       -4.33358       -0.27197
H          3.71343       -2.51567        0.85765
H          7.99322       -3.28229       -4.03822
H          8.35534       -5.01089       -4.09023
H          8.85591       -4.95402       -1.59084
H          8.55493       -3.21215       -1.58316
H          6.62357       -6.10237       -1.03034
H          6.59393       -7.02417       -2.55121
H          5.07545       -6.50141       -1.79117
H          5.28077       -3.96845       -5.26448
H          4.21853       -5.14904       -4.48082
H          5.73911       -5.68865       -5.23838
H          2.25792       -0.31002        2.57215
H          1.62784       -1.52049        1.44700
H         -0.27964        0.00606        0.83987
H          0.33838        1.24133        1.91933
H          0.04866       -0.27080        3.89271
H         -0.50262       -1.57530        2.82663
H         -2.03954        1.33563        3.00403
