20

F          1.68530       -0.31933       -0.73262
Ta         3.52105       -0.33874       -0.09973
C          4.31381       -0.45235       -2.19323
C          3.85799        0.62290       -3.12049
O          4.58059        1.39659       -3.72581
O          2.49102        0.73947       -3.29065
C          4.53464       -0.05543        1.84794
O          4.89953       -1.27353        2.64434
C          5.52215       -1.07082        3.78405
F          4.82054       -0.30882        4.70235
F          5.76552       -2.26850        4.38826
F          6.74656       -0.43685        3.67152
H          3.78047        1.39261        0.32415
H          4.73704       -1.63138       -0.09445
H          2.93951       -1.65936        0.92466
H          3.86360       -1.42201       -2.47950
H          5.40329       -0.54884       -2.24912
H          2.04107        0.20602       -2.60284
H          3.90556        0.56877        2.50844
H          5.47380        0.50452        1.68117
