41

N          3.70049        0.50503       -1.61257
Ga         2.47707        0.42072       -0.12344
C          1.57645       -1.48574        0.08907
C          2.46186       -2.74017        0.21110
F          3.24929       -2.88721       -0.88949
F          3.28111       -2.65753        1.28980
F          1.75860       -3.90918        0.34325
F          0.74609       -1.52746        1.22483
F          0.72524       -1.75800       -0.99157
C          3.55800        0.78540        1.54305
C          4.85120        1.33269        1.42552
C          5.63908        1.61408        2.54509
C          5.17094        1.36199        3.85165
C          3.87641        0.81903        3.97713
C          3.09621        0.54118        2.85038
Si         6.23055        1.75781        5.33878
C          6.33478        3.65698        5.54472
C          7.15939        4.12811        6.74700
C          7.26800        5.63201        6.87792
F          6.05472        6.24009        7.00350
F          7.99585        5.98872        7.98411
F          7.88733        6.20789        5.80817
C          5.49723        1.02457        6.92431
C          7.99143        1.09346        5.11050
H          3.18664        0.52847       -2.49571
H          4.29089       -0.32798       -1.66914
H          1.23561        1.38485       -0.35333
H          5.24408        1.53712        0.42431
H          6.64086        2.03339        2.39510
H          3.47058        0.60071        4.97032
H          2.10127        0.11083        2.99890
H          5.30574        4.04235        5.61649
H          6.75279        4.07083        4.61329
H          8.19297        3.75237        6.70040
H          6.72900        3.76910        7.69418
H          4.50371        1.44279        7.14068
H          6.14177        1.22046        7.79396
H          5.38603       -0.06516        6.83208
H          8.45117        1.49896        4.19770
H          7.97290       -0.00107        5.00966
H          8.64638        1.34240        5.95901
