63

C          1.01361       -0.20599        0.57062
C          2.52106       -0.05071        0.35542
C          3.11187       -1.12240       -0.56563
C          4.62002       -0.98551       -0.79453
C          5.19545       -2.06349       -1.71778
C          6.70325       -1.94426       -1.96036
C          7.25144       -3.03930       -2.88391
C          8.76075       -2.94880       -3.15123
Si         9.47034       -4.30941       -4.29081
C          9.16525       -6.01903       -3.59679
C          7.87056       -6.58155       -3.56468
C          7.62272       -7.83588       -3.01224
C          8.65512       -8.62526       -2.43632
C          9.96050       -8.06946       -2.49854
C         10.19932       -6.81720       -3.05856
C          8.34941       -9.90714       -1.79211
S          9.32602      -11.24207       -2.05445
O         10.68863      -10.92522       -2.49447
O          9.11483      -12.29361       -1.05236
C          8.70278      -12.13770       -3.62189
F          7.42407      -12.57599       -3.47660
F          8.72720      -11.31940       -4.70743
F          9.46325      -13.22859       -3.92750
C          7.28104      -10.05312       -0.72002
C          5.83793       -9.58160       -0.96711
S          5.00921      -10.44871       -2.34720
C          3.35442       -9.73088       -2.14500
C          8.65200       -4.12703       -5.99411
C         11.32716       -3.97732       -4.47529
H          0.61337        0.57586        1.23178
H          0.77646       -1.18018        1.02379
H          0.46895       -0.14707       -0.38383
H          3.03861       -0.08415        1.32908
H          2.73335        0.94673       -0.06596
H          2.59152       -1.08983       -1.53948
H          2.89771       -2.12039       -0.14410
H          5.14147       -1.02161        0.17835
H          4.83605        0.01211       -1.21712
H          4.66887       -2.02777       -2.68823
H          4.97621       -3.05906       -1.29393
H          7.23590       -1.98512       -0.99372
H          6.93005       -0.95224       -2.39124
H          6.70066       -2.99875       -3.84049
H          7.01874       -4.02387       -2.44533
H          9.30906       -2.99529       -2.19375
H          9.00554       -1.96590       -3.59516
H          7.02914       -6.04242       -4.01236
H          6.61954       -8.25753       -3.08819
H         10.78876       -8.64606       -2.09022
H         11.22814       -6.44489       -3.06246
H          7.59524       -9.48591        0.18232
H          7.25838      -11.10696       -0.41123
H          5.80212       -8.49939       -1.16629
H          5.25188       -9.77454       -0.05242
H          2.71527      -10.16164       -2.92665
H          3.37194       -8.63789       -2.26836
H          2.92514       -9.97676       -1.16234
H          7.57399       -4.33798       -5.94962
H          9.09385       -4.83607       -6.70864
H          8.78048       -3.11016       -6.39545
H         11.84258       -4.01755       -3.50498
H         11.50145       -2.97963       -4.90530
H         11.80016       -4.71791       -5.13584
