22

C          0.83629       -0.07160       -0.02660
C          2.36219       -0.01098        0.13397
C          2.76611        0.09849        1.60732
P          2.42840        1.83491        2.43070
F          3.08435        1.16521        3.94119
C          4.18069        2.49924        1.92125
C          3.01943       -1.20844       -0.57266
H          0.36198        0.78450        0.47145
H          0.43982       -0.99170        0.43549
H          0.53810       -0.07028       -1.08907
H          2.70877        0.90899       -0.37722
H          3.83893       -0.12632        1.72627
H          2.21069       -0.63853        2.21299
H          1.08903        1.35743        2.85889
H          2.18070        3.09841        3.15298
H          1.84873        2.40618        1.20074
H          4.95372        2.17664        2.63358
H          4.12939        3.59965        1.92282
H          4.46578        2.16154        0.91089
H          2.70784       -2.15596       -0.10192
H          4.11684       -1.15236       -0.50623
H          2.74308       -1.25900       -1.64162
