28

S          6.33697        1.77959        2.23866
C          5.34857        0.71714        1.10092
C          5.76577        0.99553       -0.34566
C          4.98397        0.13913       -1.34883
Ga         5.45529        0.54275       -3.25761
S          4.07021       -1.05548       -4.55318
O          4.61529       -1.29998       -5.90685
O          3.62370       -2.23238       -3.77762
C          2.38955       -0.17059       -4.93590
F          1.78659        0.24106       -3.78732
F          2.55923        0.92318       -5.71901
F          1.53512       -1.00611       -5.57303
C          7.29432       -0.06853       -3.87387
O          8.03209       -0.62384       -2.71340
C          9.27199       -1.03970       -2.93972
F         10.11925       -0.05568       -3.40007
F          9.79992       -1.49866       -1.77626
F          9.36926       -2.05693       -3.85489
H          5.76397        1.37419        3.39648
H          4.28263        0.94229        1.24260
H          5.52511       -0.33690        1.35459
H          6.84719        0.80650       -0.44543
H          5.61595        2.06914       -0.55246
H          3.90088        0.30213       -1.22841
H          5.16669       -0.93077       -1.16536
H          5.01150        1.93144       -3.86947
H          7.87922        0.77364       -4.27064
H          7.22651       -0.84682       -4.64682
