27

F          0.47473        0.06274        1.31380
C          1.52987       -0.53045        0.58427
C          2.82841        0.25768        0.98497
C          3.37441        0.03586        2.45860
C          4.49850       -1.04758        2.67066
F          5.64294       -0.67944        2.05032
F          4.76536       -1.11232        4.00327
F          4.15463       -2.26539        2.25755
F          3.94771        1.21106        2.87800
F          2.36015       -0.24803        3.30995
F          3.83774       -0.05722        0.11590
F          2.58960        1.59547        0.85342
N          1.70069       -1.85937        0.76096
S          0.57044       -2.93733        0.51857
O         -0.12627       -3.34022        1.73271
O         -0.22298       -2.79197       -0.69639
C          1.70678       -4.42521        0.20022
C          2.46478       -4.55856       -1.17116
C          3.44783       -3.42446       -1.62911
F          4.33649       -3.11857       -0.66793
F          4.14787       -3.88715       -2.70448
F          2.79877       -2.32318       -2.01376
F          3.22292       -5.70405       -1.08863
F          1.56508       -4.73509       -2.17297
F          2.62788       -4.53372        1.19680
F          0.90431       -5.53448        0.26072
F          1.26516       -0.09462       -0.73738
