55

C          9.25746       -1.62117       -5.58186
C          8.73197       -1.22737       -4.19921
C          9.21898        0.14969       -3.73717
C          8.69993        0.55710       -2.35507
C          9.19093        1.93286       -1.89361
C          8.67788        2.33658       -0.50789
C          9.17945        3.70823       -0.03960
C          8.68796        4.10108        1.36174
Si         9.26713        5.80734        1.98124
C          8.59647        7.17262        0.88149
C          7.22216        7.22988        0.56705
C          6.69345        8.26103       -0.21225
C          7.49546        9.30441       -0.72116
C          8.86835        9.23764       -0.40476
C          9.40614        8.20557        0.36813
B          6.93756       10.53529       -1.59067
S          6.35965       11.98475       -0.42155
O          7.43239       12.34764        0.52951
O          5.77655       13.08569       -1.21812
C          4.98462       11.37122        0.60372
S          5.43108       10.14613       -2.75317
C          8.62344        6.01725        3.75267
C         11.16206        5.83434        2.02441
H          8.89399       -2.61239       -5.88855
H         10.35758       -1.65042       -5.59447
H          8.93974       -0.89753       -6.34747
H          9.03590       -1.98659       -3.45839
H          7.62883       -1.23721       -4.20708
H          8.91590        0.90954       -4.47888
H         10.32356        0.15991       -3.72970
H          9.00150       -0.20480       -1.61401
H          7.59559        0.54903       -2.36418
H          8.88643        2.69568       -2.63108
H         10.29555        1.94147       -1.88907
H          8.97649        1.56960        0.22961
H          7.57349        2.33832       -0.51238
H          8.86638        4.47671       -0.76620
H         10.28344        3.70707       -0.06020
H          9.00677        3.34171        2.09898
H          7.58369        4.09070        1.38217
H          6.54453        6.45324        0.93936
H          5.62242        8.26240       -0.43499
H          9.52548       10.02724       -0.77651
H         10.48075        8.20832        0.57536
H          7.82526       11.11239       -2.19164
H          5.34998       10.56911        1.25489
H          4.18816       11.01655       -0.06026
H          4.65450       12.23490        1.19346
H          5.57503        8.80088       -2.74103
H          7.52407        6.00694        3.77125
H          8.94917        6.98095        4.16971
H          8.98354        5.21636        4.41602
H         11.59475        5.71618        1.02086
H         11.54426        5.01788        2.65545
H         11.53878        6.78023        2.43912
