39

N          0.82096       -0.43932       -0.18498
C          2.28832       -0.46850       -0.33862
C          2.95660       -1.16601        0.84332
C          4.48393       -1.19710        0.73165
C          5.15239       -1.88955        1.92511
C          6.70473       -1.99920        1.87701
C          7.11939       -2.75564        0.61758
C          7.94623       -2.19981       -0.37487
C          8.26095       -2.90691       -1.54135
C          7.77124       -4.19748       -1.77126
C          6.95823       -4.76318       -0.77478
C          6.64037       -4.06431        0.38867
C          8.11342       -4.95922       -3.02972
C          7.11915       -2.86929        3.19238
O          6.45284       -3.91520        3.37160
O          8.04971       -2.40106        3.90503
C          7.28034       -0.56649        1.95503
N          8.74899       -0.51663        2.04509
H          0.39754        0.09393       -0.94621
H          0.58332        0.05865        0.67589
H          2.73580        0.54015       -0.45520
H          2.51663       -1.02163       -1.26456
H          2.55935       -2.19070        0.92824
H          2.66809       -0.64582        1.77624
H          4.85187       -0.16140        0.63013
H          4.77050       -1.71632       -0.19843
H          4.75694       -2.90851        2.04195
H          4.88240       -1.35565        2.85406
H          8.38592       -1.21667       -0.20990
H          8.91011       -2.44027       -2.28945
H          6.56879       -5.77735       -0.91093
H          6.04196       -4.53438        1.17042
H          8.70939       -4.34225       -3.71740
H          7.20845       -5.28271       -3.56882
H          8.69563       -5.86895       -2.80974
H          6.78597       -0.08788        2.82566
H          6.96692        0.00481        1.06095
H          8.96105       -1.13429        2.84786
H          9.02878        0.43024        2.30915
