19

N          1.88692       -0.15044       -1.11262
C          2.40606       -0.32364        0.12719
O          2.11661        0.38967        1.10120
C          3.39747       -1.48188        0.24132
C          4.81941       -1.13260       -0.28357
C          5.26267       -1.84187       -1.58407
C          4.49998       -1.30282       -2.85156
O          5.16650       -0.62235       -3.66731
O          3.26554       -1.61168       -2.92528
N          6.71767       -1.72082       -1.78578
H          1.34976        0.69562       -1.26658
H          2.30199       -0.68000       -1.91774
H          3.01548       -2.34764       -0.32005
H          3.43892       -1.74038        1.30691
H          5.54851       -1.40826        0.49783
H          4.91748       -0.04243       -0.42207
H          4.98566       -2.90871       -1.48744
H          7.12683       -1.16947       -1.02793
H          6.79584       -1.14309       -2.63786
