31

C          4.42584        2.56392       -1.78087
C          4.32052        1.29468       -0.92976
C          4.63463        0.01101       -1.71223
C          4.60464       -1.27091       -0.88033
Ga         5.23083       -2.94656       -1.82894
C          4.09230       -3.72528       -3.31623
C          4.77233       -4.91865       -3.99231
C          3.90172       -5.69542       -4.99286
C          4.65653       -6.82892       -5.68434
N          3.77549       -7.59929       -6.58819
Br         7.39332       -2.27276       -2.92948
H          4.20451        3.47471       -1.20276
H          3.72709        2.52816       -2.63135
H          5.43927        2.66840       -2.19817
H          3.30929        1.21993       -0.49133
H          5.01533        1.36454       -0.07435
H          5.63209        0.11343       -2.17513
H          3.92554       -0.07121       -2.55689
H          3.58587       -1.45567       -0.48992
H          5.25703       -1.15681        0.00310
H          5.65899       -4.10992       -0.80328
H          3.83326       -2.95689       -4.06434
H          3.14177       -4.04732       -2.84850
H          5.12835       -5.62455       -3.21897
H          5.68400       -4.56452       -4.50468
H          3.49675       -5.01189       -5.75776
H          3.02657       -6.11609       -4.46115
H          5.14114       -7.45822       -4.91038
H          5.46941       -6.40281       -6.29506
H          3.01335       -8.00619       -6.04046
H          4.28781       -8.38999       -6.98426
