40

N          1.87265        0.93059        1.68232
C          2.91514        0.48188        0.73181
C          3.41193       -0.92210        1.07800
C          4.46295       -1.47153        0.13137
As         5.55641       -3.11006        0.90242
C          4.24237       -4.68200        0.35755
C          3.64382       -5.33816        1.60177
C          2.37428       -4.68485        2.16282
C          3.25270       -4.37457       -0.75747
C          7.17765       -1.90872        1.55236
C          7.45593       -2.12517        3.02901
C          8.89317       -1.77469        3.41236
S          9.36282       -2.10662        5.17398
H          1.69323        1.92986        1.56644
H          2.22801        0.81549        2.63461
H          3.79089        1.16148        0.69398
H          2.47175        0.48094       -0.27819
H          2.54161       -1.59854        1.12164
H          3.82165       -0.90665        2.10919
H          5.24375       -0.72558       -0.08565
H          4.03042       -1.79716       -0.82494
H          4.84316       -2.91556        2.36704
H          6.25860       -3.25170       -0.57239
H          6.45508       -4.33217        1.53000
H          5.02397       -5.35164       -0.03956
H          4.42441       -5.33648        2.38675
H          3.42437       -6.40637        1.39899
H          2.55427       -3.62993        2.41126
H          2.04562       -5.19301        3.08312
H          1.53922       -4.72823        1.44638
H          2.48236       -3.64881       -0.45411
H          2.71910       -5.28164       -1.10692
H          3.77764       -3.95395       -1.62931
H          7.01432       -0.84765        1.30565
H          7.99491       -2.29976        0.92489
H          7.26447       -3.18675        3.28111
H          6.76183       -1.52893        3.64527
H          9.12511       -0.72313        3.19115
H          9.60230       -2.39457        2.84286
H          8.37206       -1.37133        5.73231
