18

F          1.65644        0.08363        0.25214
N          2.01974       -1.35359        0.17553
S          2.61452       -1.63435       -1.28036
O          2.64523       -3.09052       -1.39756
O          2.15317       -0.79997       -2.38492
C          4.54732       -1.33064       -1.33612
C          5.17368        0.08395       -1.58609
C          4.87750        1.29407       -0.62095
C          5.17775        1.13617        0.91348
F          6.45898        0.75102        1.11796
F          5.01687        2.35029        1.50322
F          4.36158        0.27101        1.51161
F          5.68472        2.32257       -1.05049
F          3.59710        1.68806       -0.76097
F          6.54509       -0.06844       -1.58935
F          4.81840        0.51573       -2.82612
F          5.10442       -1.81537       -0.18035
F          5.04361       -2.09124       -2.36765
