59

C          1.70176        2.70491       -1.66783
C          3.04340        2.09068       -1.25902
C          3.34939        2.22698        0.23662
C          4.70047        1.63150        0.63971
C          4.96751        1.74706        2.14275
C          6.36138        1.26510        2.64921
C          6.67306       -0.15104        2.16895
C          5.73746       -1.18115        2.36912
C          6.01925       -2.50423        2.04316
C          7.26741       -2.83755        1.50311
C          8.20885       -1.82357        1.27849
C          7.90871       -0.50155        1.59941
C          7.60966       -4.26353        1.19040
C          8.58240       -4.99872        2.19478
C          8.21817       -5.08278        3.72901
C          6.93839       -5.85546        4.24405
C          6.71776       -7.39350        3.94504
C          7.80627       -8.42925        4.41256
F          8.11753       -8.25907        5.71040
F          7.29741       -9.67176        4.25682
F          8.92566       -8.34283        3.67862
F          5.56977       -7.72470        4.60476
F          6.51159       -7.57890        2.62009
F          6.95538       -5.72069        5.59990
F          5.82930       -5.22751        3.77765
F          9.29016       -5.66831        4.34511
F          8.09921       -3.82123        4.20821
F          8.79178       -6.27277        1.74958
F          9.78218       -4.35147        2.15795
F          6.48643       -5.05300        1.08942
F          8.26585       -4.36081       -0.02271
C          7.42211        2.32609        2.13362
O          7.88458        3.15626        2.98637
O          7.68352        2.30677        0.91303
C          6.29974        1.23963        4.19944
C          7.59019        0.76307        4.91085
C          8.12341        1.76090        5.93895
O          8.34267        1.45375        7.10449
O          8.33714        2.99009        5.47449
H          1.50810        2.58400       -2.74384
H          1.67304        3.78240       -1.44432
H          0.86594        2.23602       -1.12548
H          3.85722        2.56081       -1.83592
H          3.05986        1.02219       -1.53500
H          2.53827        1.74725        0.81652
H          3.32434        3.29618        0.51462
H          5.51934        2.12587        0.09621
H          4.73442        0.57018        0.33904
H          4.18088        1.19766        2.69394
H          4.86410        2.80017        2.45463
H          4.76040       -0.94847        2.79585
H          5.27139       -3.27763        2.20986
H          9.17849       -2.06510        0.84323
H          8.62983        0.28545        1.38591
H          5.46247        0.59489        4.51043
H          6.04397        2.25699        4.52699
H          8.39078        0.60514        4.17021
H          7.43736       -0.19414        5.42266
H          8.11177        3.03953        4.45058
