26

C          0.87270       -0.03098        0.17246
C          2.39323       -0.03870       -0.00769
C          2.84272        0.19692       -1.45283
C          4.36496        0.20000       -1.62461
C          4.85965        0.41798       -3.06856
C          4.52831        1.77247       -3.68457
Nb         5.37370        2.55314       -5.58001
Br         3.70233        4.55620       -5.41879
S          5.26224        1.68798       -7.79309
H          0.58356       -0.20509        1.21993
H          0.39683       -0.81226       -0.43983
H          0.44322        0.93364       -0.13731
H          2.80065       -1.00177        0.34721
H          2.84336        0.73424        0.63886
H          2.43184        1.15592       -1.81017
H          2.40432       -0.58212       -2.10321
H          4.76357       -0.76071       -1.24622
H          4.79506        0.98596       -0.97665
H          4.44808       -0.37747       -3.71440
H          5.95156        0.27694       -3.08924
H          4.84977        2.59739       -3.00845
H          3.43511        1.89638       -3.80641
H          6.74149        1.79808       -4.76580
H          6.83945        3.56434       -5.52536
H          5.44480        0.79984       -5.61549
H          5.26682        2.89213       -8.44956
