22

C          2.86422       -0.78426        0.73907
S          3.29105        0.37389       -0.59410
C          4.44357       -0.65467       -1.57301
C          5.84443       -0.81919       -0.96249
N          6.56807       -1.88427       -1.64427
S          7.90295       -1.55243       -2.35788
O          8.59674       -0.32369       -1.94162
O          8.70811       -2.75295       -2.56820
C          7.43909       -1.11897       -4.17136
C          8.57790       -0.67160       -5.13278
F          9.13080        0.49693       -4.75231
F          9.55262       -1.59654       -5.22649
F          8.08583       -0.48213       -6.40118
F          6.83152       -2.19646       -4.76219
F          6.52054       -0.08717       -4.17218
H          2.14677       -0.27173        1.39318
H          3.74518       -1.06378        1.33152
H          2.39400       -1.69164        0.33412
H          4.50830       -0.16382       -2.55413
H          3.98357       -1.64233       -1.72990
H          5.73219       -1.09975        0.10213
H          6.37071        0.15104       -0.97608
