53

C          0.88726        0.10571       -0.52088
C          2.40006        0.20186       -0.30765
C          2.89713       -0.61036        0.89226
C          4.40815       -0.51211        1.11936
C          4.90563       -1.29474        2.34003
C          6.42236       -1.17576        2.52501
C          7.05364       -1.80992        3.79885
C          6.58915       -0.97192        4.98975
C          5.44802       -1.26864        5.74796
C          5.02202       -0.43384        6.79423
C          5.71638        0.73232        7.10566
C          6.84786        1.04978        6.34340
C          7.28126        0.21300        5.31310
C          7.63585        2.28144        6.69556
F          6.83449        3.29139        7.16486
F          8.55368        2.04832        7.68465
F          8.32538        2.79106        5.64217
C          3.76373       -0.77242        7.54009
F          3.59729       -2.11490        7.71540
F          3.71408       -0.20646        8.78132
F          2.63618       -0.33846        6.88464
C          6.64646       -3.31771        3.95952
C          6.91287       -4.21387        2.71803
C          8.35138       -4.69099        2.47775
C          7.21784       -3.97367        5.22800
C          8.65991       -1.69228        3.68588
O          9.27088       -1.75597        4.78492
O          9.13087       -1.57044        2.52791
H          0.55883        0.69503       -1.38947
H          0.33960        0.47519        0.35941
H          0.57562       -0.93677       -0.68705
H          2.68688        1.25852       -0.17158
H          2.92413       -0.13795       -1.21724
H          2.61486       -1.66970        0.75538
H          2.36871       -0.27296        1.80167
H          4.68958        0.54971        1.23434
H          4.93763       -0.86723        0.21752
H          4.61149       -2.35256        2.22871
H          4.37837       -0.92320        3.23660
H          6.69430       -0.10695        2.52510
H          6.95950       -1.59616        1.66204
H          4.87622       -2.17260        5.54097
H          5.38864        1.37982        7.91700
H          8.18024        0.46725        4.75387
H          5.54500       -3.33071        4.06277
H          6.55335       -3.70084        1.81290
H          6.26582       -5.10197        2.83535
H          9.02967       -3.84651        2.30357
H          8.38181       -5.34748        1.59401
H          8.73280       -5.27109        3.33022
H          8.31394       -3.94464        5.23101
H          6.87899       -5.02036        5.29430
H          6.89060       -3.45478        6.13850
