29

N          2.65361        1.32928        0.02229
C          2.55608        0.06040        0.74956
Ta         3.73433        1.34909        2.07319
S          1.79735        3.01016        2.18496
O          2.64116        4.21806        1.95543
O          0.60074        2.88111        1.30251
C          0.91516        3.47026        3.86013
C         -0.11161        2.41617        4.35906
F         -1.22320        2.39926        3.59844
F          0.43277        1.18099        4.35058
F         -0.50200        2.68520        5.63842
F          1.82822        3.67221        4.84187
F          0.24931        4.64374        3.65463
C          5.51403        2.02091        0.90091
C          5.46531        2.63658       -0.50092
N          4.94805        4.01102       -0.44063
H          1.77539        1.85012       -0.05005
H          3.16789        1.32383       -0.85553
H          3.07058       -0.75867        0.23273
H          1.52412       -0.22443        0.98696
H          3.47624        1.91335        3.74993
H          3.95040       -0.26837        2.76373
H          5.15062        1.28343        3.13991
H          6.05704        1.04938        0.86266
H          6.14527        2.66486        1.53439
H          4.89148        1.98221       -1.19987
H          6.48108        2.68535       -0.94279
H          4.14294        4.06109        0.19118
H          4.64025        4.33711       -1.35720
