19

F          2.70481        1.82417       -1.06528
S          2.53939        0.50438       -0.12073
O          3.33093        0.80970        1.04155
O          1.11454        0.32335       -0.01618
C          3.29358       -0.72283       -1.09093
S          2.53474       -1.15291       -2.59479
O          1.53653       -0.15909       -2.94004
O          3.49261       -1.61039       -3.57993
C          1.49940       -2.70113       -2.21377
F          2.25621       -3.72749       -1.78600
F          0.55919       -2.44777       -1.28462
F          0.87487       -3.08330       -3.35560
S          4.79906       -1.44513       -0.61945
O          4.97995       -1.44015        0.81703
O          5.02075       -2.65702       -1.38227
C          6.14844       -0.26330       -1.24075
F          6.09818       -0.11082       -2.57716
F          6.04104        0.95257       -0.66874
F          7.36076       -0.77680       -0.91831
