26

C          2.55391       -1.15780       -1.02686
C          2.40250       -0.09016        0.06139
Ga         3.17921       -0.38638        1.88391
S          1.45110       -1.50251        3.27174
O          1.84628       -1.81172        4.65836
O          0.23456       -0.68616        3.06818
C          0.84893       -3.23251        2.62872
F          0.61311       -3.20652        1.28824
F          1.75337       -4.21295        2.86447
F         -0.30572       -3.58240        3.24190
C          5.08638       -1.28076        1.96695
C          5.38410       -2.78551        2.20229
C          4.98299       -3.76551        1.05348
F          3.69475       -3.60616        0.69814
F          5.75202       -3.59109       -0.04334
F          5.14896       -5.04639        1.46650
F          6.73021       -2.99978        2.41195
F          4.72834       -3.18763        3.32717
F          5.76211       -0.93658        0.78276
F          5.79057       -0.64110        2.98425
H          2.12447       -0.82469       -1.98795
H          2.04483       -2.09148       -0.75237
H          3.60900       -1.40590       -1.21372
H          1.33900        0.13288        0.23934
H          2.85929        0.85700       -0.27254
H          3.26639        0.84503        2.86409
