43

C          4.94548       -2.78462       -1.01240
C          4.42900       -1.39913       -0.61493
C          5.13177       -0.26055       -1.36102
C          4.62611        1.12213       -0.93123
C          5.12690        2.34929       -1.74163
C          4.66375        2.18729       -3.25405
O          3.59125        2.76504       -3.60789
O          5.39048        1.46271       -3.98596
C          4.57843        3.64656       -1.08879
C          3.05457        3.72498       -0.78370
C          2.40958        4.99902       -1.32688
O          1.99550        5.91435       -0.60068
N          2.34293        5.01210       -2.68155
C          6.67195        2.39400       -1.70136
C          7.31105        3.55226       -2.48415
C          8.78563        3.32208       -2.85775
C          9.03251        2.08865       -3.73951
N          8.21903        2.13224       -4.95988
H          4.42385       -3.58881       -0.47145
H          6.02143       -2.88166       -0.79980
H          4.80860       -2.96045       -2.08998
H          4.54929       -1.26017        0.47453
H          3.34378       -1.34223       -0.80799
H          4.99168       -0.37656       -2.44710
H          6.21811       -0.34044       -1.18569
H          4.88980        1.28519        0.13310
H          3.52454        1.10559       -0.97034
H          4.85186        4.49152       -1.73678
H          5.12608        3.79887       -0.14195
H          2.86156        3.69786        0.29613
H          2.54193        2.87427       -1.25330
H          2.79311        4.22382       -3.19862
H          2.02459        5.85894       -3.13699
H          7.03125        1.44802       -2.12465
H          7.00692        2.42615       -0.64643
H          7.23623        4.49085       -1.91189
H          6.74296        3.71562       -3.41292
H          9.39691        3.22271       -1.94235
H          9.15390        4.21113       -3.39673
H          8.86741        1.17247       -3.13409
H         10.09740        2.07728       -4.02953
H          7.23094        1.95125       -4.71918
H          8.49210        1.36525       -5.57594
