27

C          0.80067       -0.10103        0.04616
C          2.33127       -0.09114       -0.02190
C          2.96221       -1.49098       -0.02212
N          4.36910       -1.45229       -0.10038
C          4.89361       -2.74752       -0.12671
C          6.42780       -2.74852       -0.24407
C          6.96394       -4.18028       -0.36592
C          8.45572       -4.38401       -0.29574
C          9.32517       -3.70289       -1.40074
F          9.33012       -2.36064       -1.28532
F         10.61612       -4.12127       -1.33019
F          8.86302       -4.01985       -2.63551
F          8.98294       -3.96521        0.91052
F          8.75251       -5.74073       -0.39134
H          0.37625        0.91601        0.04713
H          0.44685       -0.60973        0.95765
H          0.36899       -0.64038       -0.81261
H          2.74896        0.47233        0.82983
H          2.67029        0.43468       -0.93078
H          2.47695       -2.07733       -0.87434
H          2.56854       -2.03446        0.90260
H          4.49611       -3.39683       -0.98548
H          4.63907       -3.38715        0.79226
H          6.85295       -2.24645        0.63839
H          6.69993       -2.14392       -1.12241
H          6.61573       -4.63888       -1.30454
H          6.55509       -4.79392        0.45533
