24

C          3.14495        0.53616        1.20046
C          2.47165       -0.20407        0.03123
Al         3.17020        0.30847       -1.80719
C          1.99758       -0.56395       -3.26334
O          0.56161       -0.14517       -3.11657
C         -0.29565       -0.59681       -4.00333
F         -0.40978       -1.97426       -4.05249
F         -1.54219       -0.12111       -3.71311
F         -0.03499       -0.22266       -5.30858
C          5.06314       -0.36688       -2.14966
C          5.28504       -1.88295       -2.00861
H          2.73852        0.27403        2.19675
H          3.04006        1.62796        1.08896
H          4.22849        0.33329        1.23866
H          1.38436       -0.00475        0.05363
H          2.56709       -1.29612        0.18403
H          3.11978        1.94535       -2.00515
H          1.99975       -1.66699       -3.23274
H          2.30634       -0.26267       -4.27894
H          5.73958        0.16620       -1.45475
H          5.38185       -0.03940       -3.15728
H          4.98966       -2.23980       -1.00789
H          6.33354       -2.20465       -2.16382
H          4.67286       -2.45018       -2.72982
