48

C          0.68457       -0.03649        0.45265
C          2.17842        0.02053        0.11876
C          2.84865        1.35187        0.47859
C          4.34781        1.40657        0.14131
C          5.06664        2.71798        0.48260
Al         7.04194        2.64895        0.01717
C          7.95200        4.40251        0.53083
C          8.45911        5.30507       -0.42753
C          9.11434        6.48956       -0.08381
C          9.28100        6.82362        1.26784
C          8.77553        5.96120        2.25594
C          8.13048        4.78395        1.87913
C         10.01055        8.06703        1.66533
C         11.46952        7.89036        2.24316
C         12.56850        7.14123        1.39289
C         13.08279        7.70205        0.00717
C         13.74540        9.13415       -0.11562
C         15.01417        9.47187        0.75241
F         15.95593        8.51714        0.63873
F         15.53507       10.63521        0.29986
F         14.70713        9.63151        2.04799
F         14.14232        9.23358       -1.41852
F         12.81953       10.09304        0.11712
F         14.02071        6.80601       -0.41880
F         12.06228        7.68990       -0.88326
F         13.67666        7.04889        2.19531
F         12.13470        5.88493        1.13930
F         11.97340        9.12043        2.56773
F         11.38078        7.17270        3.40038
F         10.12197        8.96443        0.62448
F          9.34763        8.73689        2.68371
H          0.24052       -1.00934        0.19159
H          0.12558        0.74071       -0.09167
H          0.51068        0.13069        1.52714
H          2.32221       -0.17578       -0.95808
H          2.70289       -0.79796        0.64214
H          2.71390        1.55047        1.55788
H          2.33034        2.17695       -0.04407
H          4.46831        1.19173       -0.93734
H          4.84973        0.56761        0.65951
H          4.94973        2.93757        1.56112
H          4.58426        3.55870       -0.05076
H          7.75729        1.45484        0.89675
H          7.25029        2.44871       -1.60421
H          8.34460        5.06772       -1.48983
H          9.49432        7.15503       -0.85939
H          8.88775        6.21726        3.31090
H          7.75688        4.12895        2.67290
