45

I          3.01768       -1.30291       -0.99039
B          2.92170        0.76388       -0.01583
S          1.02760        0.99199        0.39210
O          0.20662        1.15304       -0.80813
O          0.54405        0.10818        1.45940
C          0.82850        2.73293        1.31275
C          1.25882        4.03078        0.56967
C          0.99091        5.38591        1.32237
F         -0.32569        5.58331        1.53560
F          1.62878        5.43631        2.50716
F          1.44515        6.41395        0.56284
F          2.60141        3.98844        0.33346
F          0.60578        4.11899       -0.61920
F         -0.50661        2.82301        1.58031
F          1.49534        2.68035        2.50134
C          3.84882        0.85699        1.27874
C          4.92414        1.76854        1.28911
C          5.76516        1.90958        2.39225
C          5.54405        1.13229        3.53868
C          4.48493        0.21096        3.55356
C          3.66156        0.07666        2.43795
C          6.44862        1.28362        4.72711
C          6.27840        2.57954        5.61170
C          4.89273        2.89528        6.29285
C          4.28742        1.95277        7.41486
C          5.14759        1.66450        8.70190
C          4.31685        1.10282        9.91904
F          3.55355        0.05859        9.55029
F          5.18160        0.68609       10.86903
F          3.53088        2.05045       10.45944
F          6.09745        0.74377        8.41159
F          5.74935        2.80383        9.13399
F          3.14443        2.57950        7.82532
F          3.94105        0.76714        6.86090
F          5.01932        4.13381        6.85542
F          3.94378        2.96638        5.32871
F          7.21987        2.56511        6.60415
F          6.53693        3.65861        4.81793
F          6.34962        0.21482        5.58809
F          7.77417        1.34438        4.32832
H          3.14463        1.57675       -0.87708
H          5.10137        2.38492        0.40544
H          6.59363        2.61795        2.36292
H          4.31153       -0.40467        4.43577
H          2.84090       -0.64166        2.46433
