79

S          9.91625       -1.38636        7.55249
C          8.66904       -1.51897        6.20379
C          9.11082       -0.64754        5.02848
C          8.15386       -0.78724        3.84033
Ta         5.98731       -0.34517        4.09823
C          4.53070       -0.77729        5.73376
C          4.43931        0.04024        6.88795
C          3.42876       -0.12197        7.84397
C          2.42441       -1.10007        7.69563
C          2.49175       -1.90955        6.54281
C          3.52022       -1.75839        5.60738
Si         1.09943       -1.34242        9.01046
C          0.20725        0.29595        9.39076
C         -0.49924        0.96414        8.20190
C         -1.18921        2.28700        8.55678
C         -1.87736        2.96285        7.36723
C         -2.54651        4.29481        7.71990
C         -3.22374        4.97869        6.52877
C         -3.88330        6.31563        6.88070
C         -4.55541        6.99329        5.68407
C         -0.17064       -2.62628        8.43929
C          1.88639       -1.94655       10.62607
C          5.05262        1.23249        2.90247
C          3.77275        1.05309        2.07873
C          2.51930        1.03597        2.96138
C          1.22655        0.79001        2.18807
N          0.07991        0.81900        3.09200
C         -1.24452        0.74251        2.71875
N         -2.27441        0.67349        3.50449
N         -1.46437        0.82794        1.33945
H          9.25575       -2.12477        8.47578
H          7.69775       -1.17006        6.58456
H          8.57836       -2.57098        5.90226
H         10.15099       -0.92058        4.75875
H          9.12337        0.40144        5.36570
H          8.28862       -1.76431        3.35037
H          8.40268       -0.01771        3.07845
H          6.90698        0.86292        5.15227
H          5.80850       -2.13667        4.08163
H          6.07899       -1.03168        2.42790
H          5.18755        0.82245        7.04660
H          3.42704        0.53163        8.72427
H          1.73907       -2.68786        6.38113
H          3.55615       -2.43999        4.75127
H          0.94910        0.99440        9.81747
H         -0.51949        0.10433       10.20138
H         -1.24965        0.27456        7.77678
H          0.23476        1.14553        7.39840
H         -0.44152        2.97710        8.98676
H         -1.93002        2.10745        9.35689
H         -2.63210        2.27838        6.94141
H         -1.13707        3.13016        6.56561
H         -1.79162        4.97716        8.15004
H         -3.29262        4.12879        8.51788
H         -3.98069        4.29964        6.09882
H         -2.47906        5.13944        5.72978
H         -3.12385        6.99223        7.30873
H         -4.62780        6.15385        7.67923
H         -3.82783        7.19652        4.88409
H         -5.01855        7.94998        5.96556
H         -5.34178        6.35348        5.25624
H         -0.66935       -2.32647        7.50696
H         -0.94714       -2.76410        9.20654
H          0.30177       -3.60359        8.26504
H          2.63724       -1.22950       10.98822
H          2.39545       -2.90933       10.47669
H          1.13279       -2.07691       11.41748
H          5.89418        1.54096        2.25131
H          4.91636        2.06262        3.63123
H          3.83476        0.11228        1.50398
H          3.65274        1.86188        1.33038
H          2.43481        1.99845        3.49416
H          2.62765        0.26109        3.73924
H          1.30261       -0.18234        1.65907
H          1.09340        1.57169        1.42186
H          0.27337        0.57041        4.05625
H         -1.98643        0.73435        4.48558
H         -0.79807        0.33155        0.75478
H         -2.43036        0.60156        1.12275
