34

C          0.94705       -0.03638       -0.26617
C          2.47316        0.01422       -0.13662
C          2.96314        0.71287        1.13717
C          4.48872        0.75241        1.28683
C          4.98327        1.47290        2.54933
C          6.50352        1.52274        2.73506
B          6.98999        2.33652        4.07968
C          8.62799        2.36219        4.24492
C          9.11893        3.12543        5.47997
C         10.63684        3.23383        5.61472
N         11.02892        3.99505        6.82669
H          0.62827       -0.54091       -1.19112
H          0.51454        0.97621       -0.27331
H          0.49498       -0.57670        0.58015
H          2.90020        0.52646       -1.01642
H          2.87779       -1.01260       -0.16383
H          2.52447        0.20995        2.01855
H          2.56942        1.74562        1.15832
H          4.92784        1.24074        0.39676
H          4.88016       -0.28214        1.28193
H          4.53107        0.99299        3.43760
H          4.59170        2.50763        2.54698
H          6.94961        1.98003        1.82552
H          6.88610        0.47914        2.75263
H          6.48059        1.80554        5.09171
H          6.57022        3.51534        4.01851
H          9.09563        2.81703        3.34514
H          9.02985        1.32734        4.29152
H          8.71076        2.65781        6.39292
H          8.69497        4.14902        5.45357
H         11.04253        3.67641        4.68145
H         11.07381        2.22340        5.69860
H         10.51288        4.87851        6.83011
H         12.01799        4.24953        6.78061
