33

N          3.68171        1.89686        2.63949
C          2.73631        0.93932        2.00527
C          3.44720        0.61963        0.70641
Nb         5.52687        1.17641        1.30737
C          6.10751        0.01536       -0.60123
C          7.54108       -0.01273       -1.22195
C          8.69600       -0.42084       -0.24852
C         10.12518       -0.55183       -0.89497
F         10.18915       -1.57180       -1.77656
F         10.51012        0.57628       -1.52008
F         11.02526       -0.80829        0.08833
F          8.80987        0.51604        0.73165
F          8.43648       -1.63136        0.31957
F          7.59894       -0.88816       -2.29271
F          7.85098        1.22364       -1.71135
F          5.73471       -1.34483       -0.51433
F          5.32671        0.48681       -1.68714
S          6.15060        3.51775        2.08394
O          7.46859        4.03940        1.64956
O          4.94530        4.34233        1.71475
C          6.25113        3.72990        3.90894
H          3.68542        1.89435        3.65825
H          3.57445        2.86825        2.31395
H          1.70736        1.34689        1.93726
H          2.68539        0.04908        2.65030
H          3.19611        1.31747       -0.11068
H          3.34279       -0.40963        0.33944
H          6.27833        2.25834        0.14263
H          6.45517       -0.25562        1.71613
H          6.10904        0.99064        2.97228
H          7.10253        3.14444        4.27246
H          5.32244        3.39625        4.38763
H          6.40696        4.80421        4.07419
