38

C          0.93238       -0.69125        2.43223
O          2.23991       -0.60809        1.90796
C          2.45387       -1.53576        0.84927
C          3.90782       -1.52402        0.42094
O          4.69523       -2.18085        1.38944
C          6.06927       -2.35009        0.96402
C          6.85651       -3.06914        2.03281
Ga         8.66936       -3.70075        1.44253
S         10.08092       -1.71601        0.88485
O         11.52371       -2.03418        0.92807
O          9.57018       -1.03025       -0.31996
C          9.91132       -0.23321        2.18837
C         10.56066       -0.42926        3.57765
F         11.89968       -0.51715        3.49715
F         10.26975        0.61068        4.41406
F         10.08807       -1.55632        4.16302
F         10.46170        0.87836        1.62607
F          8.57698        0.00291        2.38869
C          9.78681       -4.55697        2.90646
O          9.36323       -5.97730        3.00621
C          9.91836       -6.69430        3.97464
F          9.66118       -6.22438        5.24180
F          9.42895       -7.96069        3.91909
F         11.28591       -6.78871        3.89456
H          0.85819        0.04350        3.24476
H          0.71816       -1.69878        2.83968
H          0.16392       -0.45853        1.66708
H          1.81178       -1.27245       -0.01764
H          2.18181       -2.55813        1.17879
H          4.24428       -0.47781        0.26737
H          3.98137       -2.03997       -0.56101
H          6.50806       -1.35829        0.74668
H          6.06702       -2.92164        0.01363
H          6.31971       -3.98771        2.32567
H          6.94456       -2.44511        2.93400
H          8.80504       -4.37162        0.02172
H          9.62841       -4.09169        3.88844
H         10.85869       -4.53528        2.66696
