25

C          3.29029       -3.99485        0.51651
C          2.21184       -2.91703        0.35899
C          2.65921       -1.47585        0.64509
S          2.86962       -1.32489        2.51757
O          1.56375       -1.51343        3.14693
O          3.98434       -2.14722        2.96130
C          3.39324        0.51903        2.98098
C          2.64269        0.99235        4.27771
C          3.17608        2.33913        4.89647
F          3.16847        3.34045        3.99563
F          2.36610        2.69839        5.92464
F          4.42347        2.20997        5.38605
F          1.32787        1.19427        4.00786
F          2.76659        0.05559        5.25819
F          4.71315        0.52608        3.25542
F          3.11544        1.40296        2.00269
C          3.97599       -1.01643       -0.13236
O          3.99300       -1.38362       -1.32438
O          4.78341       -0.36880        0.56887
Cl         1.28260       -0.37994        0.21203
H          2.89050       -4.95554        0.15956
H          3.60831       -4.11826        1.55778
H          4.16856       -3.74280       -0.09162
H          1.31869       -3.14717        0.96051
H          1.90385       -2.87192       -0.69588
