50

N          5.99235        3.00035        8.84275
C          5.18326        1.97890        8.30055
N          3.91737        1.81311        8.55415
N          5.87082        1.12147        7.49599
C          5.34418       -0.16731        7.09565
C          6.35766       -0.92843        6.23356
C          6.53209       -0.41302        4.79272
C          7.35270        0.87016        4.51035
C          8.88899        0.91537        4.74012
S          9.54657       -0.75109        4.02810
O          9.34302       -1.77212        5.03866
O          8.96982       -0.93721        2.70043
C         11.46240       -0.78197        3.60690
C         12.01028       -2.25061        3.38396
C         11.33910       -3.18347        2.31407
F         11.22716       -2.56517        1.12456
F         12.13831       -4.26945        2.14573
F         10.13668       -3.61964        2.70669
F         13.31063       -2.09254        2.97431
F         12.01966       -2.91396        4.56248
F         11.63638       -0.09117        2.45131
F         12.24528       -0.25040        4.55444
C          9.51571        2.07233        3.91722
C          9.02349        3.59207        4.02890
C          9.20871        4.50946        5.30664
C         10.63071        4.62202        5.96297
F         11.55307        4.97864        5.04247
F         10.58178        5.60063        6.90127
F         11.00902        3.49074        6.55293
F          8.89381        5.77619        4.87973
F          8.31894        4.17417        6.26161
F          9.70080        4.24271        3.03330
F          7.69576        3.66098        3.72878
F         10.86996        2.13682        4.11324
F          9.32851        1.83011        2.56850
C          9.38156        0.97814        6.27480
O          8.57545        1.56200        7.04628
O         10.49606        0.48625        6.48744
H          5.50919        3.88838        8.93318
H          6.90287        3.10365        8.39570
H          3.60086        2.53650        9.20641
H          6.88696        1.26240        7.38082
H          4.39682       -0.02891        6.54506
H          5.08889       -0.76868        7.98882
H          6.00059       -1.96783        6.16099
H          7.32636       -0.98404        6.75181
H          5.52641       -0.19537        4.39310
H          6.91985       -1.23020        4.17072
H          6.96627        1.68374        5.14128
H          7.15598        1.13744        3.46373
