24

O          3.34509       -2.34588       -1.27680
C          2.88280       -1.22847       -1.85030
O          1.71446       -1.11414       -2.19322
C          3.91694       -0.12077       -2.08266
C          4.99097        0.01321       -0.98771
N          5.62819       -1.28468       -0.74395
S          7.18182       -1.41218       -0.76502
O          7.90952       -0.17341       -0.48424
O          7.61487       -2.64995       -0.13409
C          7.61594       -1.73267       -2.61003
C          9.12118       -1.92431       -2.97579
C          9.44518       -2.15260       -4.49863
F          8.83437       -3.25061       -4.98689
F          9.08573       -1.09399       -5.25348
F         10.78404       -2.32620       -4.64875
F          9.83322       -0.82385       -2.60610
F          9.61661       -3.00994       -2.32038
F          6.94390       -2.84796       -3.03066
F          7.14660       -0.66974       -3.35081
H          4.34058       -2.18442       -1.02783
H          3.36348        0.81959       -2.20894
H          4.41230       -0.34484       -3.04197
H          4.50553        0.34956       -0.05254
H          5.71749        0.79293       -1.26572
