37

N          4.69065       -0.75680        2.59381
C          4.25229       -0.31031        1.25723
C          4.85369       -1.18342        0.15895
C          4.44261       -0.71649       -1.24256
C          5.00086       -1.55146       -2.42157
C          4.51360       -2.97510       -2.38454
C          3.13697       -3.25322       -2.19731
C          2.65956       -4.56090       -2.20397
C          3.51953       -5.65223       -2.40373
C          4.87236       -5.38851       -2.60243
C          5.36326       -4.07425       -2.59336
C          5.84288       -6.51356       -2.82391
F          5.25492       -7.74407       -2.78932
F          6.48141       -6.42573       -4.03044
F          6.83714       -6.53695       -1.88021
C          1.20188       -4.85137       -1.97834
F          0.43596       -3.73964       -1.86628
F          0.66059       -5.60417       -2.98843
F          0.99718       -5.58220       -0.83083
C          4.34569       -0.88860       -3.79884
O          3.10681       -0.71496       -3.73611
O          5.16832       -0.64652       -4.70458
C          6.52627       -1.44241       -2.48013
H          4.33542       -0.12250        3.31125
H          5.71028       -0.70480        2.64828
H          4.50171        0.75008        1.04691
H          3.15308       -0.38656        1.22352
H          4.54596       -2.22814        0.32586
H          5.95426       -1.16416        0.25790
H          4.77782        0.32441       -1.39220
H          3.34704       -0.68352       -1.32798
H          2.44632       -2.41872       -2.09499
H          3.13995       -6.67237       -2.40331
H          6.42837       -3.91097       -2.75330
H          7.02067       -1.95342       -1.63626
H          6.81600       -0.38308       -2.45865
H          6.90968       -1.84619       -3.42481
