33

N          1.75704       -0.96338       -0.38365
C          2.80316       -0.04545        0.12244
Al         3.44740        1.26598       -1.26150
S          1.86839        3.15875       -0.93743
O          0.48097        2.91904       -1.38051
O          2.06045        3.71182        0.42292
C          2.39137        4.74342       -2.00690
C          2.19388        4.65792       -3.53804
F          0.89341        4.56985       -3.87136
F          2.69718        5.76668       -4.16517
F          2.84436        3.58507       -4.03875
F          1.66743        5.80379       -1.54944
F          3.71729        5.00458       -1.78086
C          5.26914        2.02404       -0.91389
C          5.54366        2.43092        0.54139
C          6.99023        2.86134        0.82255
C          7.23258        3.22861        2.28373
N          8.63961        3.61110        2.51737
H          1.76173       -1.85801        0.10928
H          1.90645       -1.16957       -1.37193
H          3.72010       -0.57827        0.46346
H          2.42043        0.48073        1.01351
H          3.15839        0.75568       -2.77631
H          5.47671        2.87339       -1.58744
H          5.98467        1.23236       -1.21548
H          5.29351        1.59183        1.21623
H          4.86189        3.24929        0.82772
H          7.25985        3.71867        0.18379
H          7.67328        2.03788        0.53859
H          6.89784        2.38535        2.92190
H          6.60259        4.09262        2.55061
H          9.24545        2.82449        2.27309
H          8.79476        3.78844        3.51139
