66

N          6.95160        0.86445       -3.44566
C          6.03083        0.77921       -2.28846
C          5.73141       -0.68078       -1.90576
C          4.73499       -0.81306       -0.77895
C          5.13243       -0.73767        0.55977
C          4.22001       -0.83478        1.68629
C          4.63662       -0.76217        3.00090
C          5.99955       -0.59850        3.38548
C          6.90963       -0.49935        2.29134
C          6.51695       -0.55737        0.96879
Si         6.53313       -0.45586        5.14114
C          5.23111       -1.26598        6.28658
C          5.49653       -1.20195        7.79629
C          4.39740       -1.86047        8.64038
C          4.63699       -1.78619       10.15110
C          3.53031       -2.44448       10.98085
C          3.75751       -2.36344       12.49296
C          2.65284       -3.02815       13.32039
C          2.89227       -2.94075       14.82940
C          8.20983       -1.31043        5.44440
C          6.76062        1.34889        5.73221
C          3.29607       -0.94105       -1.20751
C          2.84918       -2.37007       -1.61292
C          2.86294       -3.35532       -0.44897
N          2.54649       -4.72652       -0.90498
H          7.06463        1.83852       -3.73489
H          6.52649        0.38198       -4.24186
H          5.06696        1.29895       -2.45938
H          6.51307        1.27749       -1.43337
H          6.69108       -1.17904       -1.68175
H          5.34246       -1.19022       -2.81108
H          3.15445       -0.98272        1.49849
H          3.86666       -0.84772        3.77646
H          7.97976       -0.36925        2.49454
H          7.28862       -0.46681        0.20074
H          5.12705       -2.31832        5.96901
H          4.25543       -0.79636        6.06961
H          5.60445       -0.14991        8.11447
H          6.46178       -1.68544        8.03059
H          4.29474       -2.91779        8.33747
H          3.42956       -1.38474        8.40139
H          4.73760       -0.72818       10.45263
H          5.60463       -2.26175       10.39208
H          3.43448       -3.50392       10.68336
H          2.56216       -1.97387       10.73292
H          3.84744       -1.30383       12.79218
H          4.72740       -2.83008       12.74209
H          2.56386       -4.08628       13.02089
H          1.68416       -2.56185       13.07209
H          3.83885       -3.42789       15.10922
H          2.08649       -3.42578       15.39904
H          2.95182       -1.89308       15.16126
H          8.13761       -2.39044        5.25017
H          8.56823       -1.16625        6.47543
H          8.97798       -0.90732        4.76766
H          5.81495        1.90489        5.64785
H          7.49514        1.86078        5.09228
H          7.11187        1.42181        6.77458
H          3.10498       -0.28812       -2.08460
H          2.60897       -0.57297       -0.42516
H          3.51332       -2.75846       -2.40333
H          1.82862       -2.33172       -2.04721
H          2.17243       -2.99161        0.33830
H          3.87008       -3.36272       -0.00617
H          1.59116       -4.74870       -1.26991
H          2.55538       -5.36362       -0.10595
