61

C          2.46534       -0.19771       -0.52910
C          1.00665       -0.09406       -0.15140
C          0.21089       -1.23681        0.00534
C         -1.13699       -1.13325        0.37168
C         -1.77014        0.10528        0.60425
C         -0.94624        1.23994        0.43493
C          0.40102        1.15277        0.06860
Al        -3.71192        0.25095        1.19308
C         -4.69320       -1.43015        0.58396
C         -5.50705       -2.15369        1.48415
C         -6.17877       -3.32412        1.12030
C         -6.07592       -3.84875       -0.18532
C         -5.27482       -3.13703       -1.10025
C         -4.60779       -1.96724       -0.71904
Si        -6.95105       -5.43764       -0.63867
C         -8.83735       -5.19102       -0.44611
C         -9.66955       -6.46298       -0.64165
C        -11.16476       -6.25056       -0.54247
F        -11.63627       -5.39131       -1.48976
F        -11.85091       -7.42553       -0.71080
F        -11.54662       -5.75145        0.66668
C         -6.59129       -5.94237       -2.42775
C         -6.41644       -6.84530        0.51408
C         -4.53389        1.94650        0.41802
C         -4.48891        2.11890       -1.10342
C         -5.08000        3.46848       -1.56261
C         -5.05347        3.69830       -3.05792
C         -5.61855        5.07728       -3.51808
F         -6.90904        5.22454       -3.13114
F         -4.90545        6.09550       -2.97828
F         -5.57486        5.21329       -4.86330
F         -3.77063        3.63468       -3.56053
F         -5.79205        2.74692       -3.73129
H          2.71731       -1.21283       -0.86755
H          3.12262        0.03816        0.32410
H          2.72562        0.50294       -1.33723
H          0.65527       -2.22327       -0.16754
H         -1.71565       -2.05735        0.47441
H         -1.36921        2.23872        0.59310
H          0.99437        2.06576       -0.05299
H         -3.84606        0.31382        2.82951
H         -5.60564       -1.79077        2.51307
H         -6.78667       -3.84263        1.87162
H         -5.16146       -3.50429       -2.12542
H         -3.98536       -1.46459       -1.46747
H         -9.14743       -4.41844       -1.16728
H         -9.02462       -4.76940        0.55396
H         -9.41731       -7.22549        0.11021
H         -9.49329       -6.91461       -1.62990
H         -6.92519       -5.17187       -3.13721
H         -7.09739       -6.88353       -2.68890
H         -5.51353       -6.09337       -2.58237
H         -6.61741       -6.59128        1.56496
H         -5.33439       -7.01526        0.42091
H         -6.92701       -7.79348        0.28846
H         -4.02047        2.80330        0.89716
H         -5.58226        2.00697        0.76609
H         -5.04400        1.30404       -1.59525
H         -3.45078        2.04693       -1.46475
H         -4.52692        4.29491       -1.08984
H         -6.12706        3.55184       -1.23251
