17

C          1.00876       -0.04040        0.09757
N          2.41949       -0.05305        0.07031
C          2.88022        0.77543       -0.96591
C          4.41472        0.79954       -1.05896
C          4.95814        1.68622       -2.17369
N          6.44087        1.75825       -2.13801
H          0.61034       -0.69319        0.89917
H          0.50540       -0.38728       -0.86956
H          0.53670        0.98832        0.26792
H          2.53719        1.86785       -0.87472
H          2.47953        0.48692       -2.00205
H          4.78165       -0.23260       -1.18176
H          4.80161        1.15378       -0.08427
H          4.48242        2.68443       -2.09416
H          4.66882        1.27433       -3.15514
H          6.72456        1.99865       -1.18445
H          6.76680        2.52791       -2.72750
