38

F          1.23489       -1.07416        0.02587
C          1.74045        0.11956        0.43208
C          2.92395       -0.08197        1.39888
In         2.48531       -1.18620        3.39953
C          4.01578       -2.93971        3.44214
C          3.63863       -4.37861        2.99585
C          3.36558       -4.56293        1.46382
C          2.66735       -5.91372        1.05705
F          3.32821       -6.98591        1.54069
F          1.39226       -5.96722        1.48605
F          2.65219       -6.01026       -0.29411
F          2.55783       -3.56748        1.01000
F          4.54229       -4.51596        0.78257
F          4.61696       -5.29008        3.32777
F          2.50249       -4.75476        3.67288
F          5.20231       -2.63790        2.77181
F          4.38895       -3.11368        4.78543
C          0.40397       -1.97558        3.39954
C         -0.63219       -0.99224        3.94512
C         -2.05335       -1.59177        3.95630
C         -3.10239       -0.68019        4.55660
C         -4.54636       -1.26873        4.57941
F         -4.97967       -1.52963        3.32288
F         -4.58313       -2.42765        5.28095
F         -5.42355       -0.41285        5.15022
F         -2.80472       -0.36569        5.86689
F         -3.19151        0.51219        3.87142
F          3.91247       -0.70284        0.63374
F          3.40400        1.21056        1.64646
F          2.05666        0.81682       -0.69847
F          0.73356        0.80274        1.04398
H          2.95954       -0.12089        4.71466
H          0.40536       -2.90017        3.99863
H          0.15318       -2.26737        2.36770
H         -0.64375       -0.07123        3.34254
H         -0.36788       -0.68801        4.96970
H         -2.06052       -2.52987        4.53231
H         -2.36820       -1.83844        2.93069
