25

N          2.14972        0.22304       -1.21440
Ga         3.95192       -0.46755       -1.08590
S          4.06101       -2.38979        0.58501
O          4.55242       -3.61277       -0.07826
O          4.70890       -2.00052        1.85383
C          2.22679       -3.03599        1.13516
C          1.55305       -2.50538        2.43233
C          1.18721       -0.98395        2.48524
F          0.22891       -0.68146        1.57883
F          0.70075       -0.68548        3.71197
F          2.25186       -0.20058        2.25226
F          0.36120       -3.17403        2.63285
F          2.35233       -2.77532        3.49511
F          1.38031       -2.79778        0.08025
F          2.32389       -4.38347        1.29725
C          4.82180        0.98878        0.00038
C          4.65142        2.34478       -0.63718
O          5.56148        3.14903       -0.78324
O          3.39817        2.66268       -1.05401
H          1.58406        0.08181       -0.37862
H          1.60891       -0.15234       -1.99270
H          4.50229       -1.14639       -2.38170
H          5.87855        0.81976        0.22610
H          4.26103        0.96366        0.94784
H          2.81283        1.82775       -1.09661
