70

N          3.33147        1.83865       -0.16734
C          4.62989        1.28224       -0.06899
N          5.71997        1.77173       -0.55617
N          4.62590        0.08412        0.60823
C          5.84514       -0.70338        0.76191
C          5.54420       -1.99789        1.51063
C          6.80283       -2.81407        1.81680
C          6.60961       -3.98392        2.76115
Nb         7.86329       -2.90253        4.20067
C          9.83528       -2.70756        3.19282
C         10.48517       -3.74764        2.50433
C         11.70719       -3.54424        1.85383
C         12.32707       -2.29139        1.87445
C         11.69248       -1.24505        2.54556
C         10.46431       -1.45039        3.18781
C         12.37605        0.09191        2.62970
F         13.22875        0.16963        3.69901
F         13.13324        0.36442        1.52414
F         11.49918        1.12454        2.76648
C         12.37273       -4.66007        1.09811
F         11.87362       -5.88616        1.40731
F         12.22518       -4.51922       -0.26140
F         13.71884       -4.71397        1.32157
C          9.44253       -3.58403        5.61978
C         10.22034       -2.65526        6.34627
C         11.40568       -3.00469        6.98584
C         11.85767       -4.33352        6.95182
C         11.06332       -5.30062        6.31321
C          9.88180       -4.92583        5.67847
C         13.18484       -4.70508        7.52299
C         14.32172       -5.07749        6.49007
C         14.67187       -4.08519        5.31152
C         15.22863       -2.63034        5.57811
C         16.57064       -2.39196        6.38167
C         17.90477       -3.04641        5.86511
F         18.11389       -2.77602        4.56405
F         18.93121       -2.52388        6.57630
F         17.91424       -4.37591        6.04395
F         16.77525       -1.04291        6.34903
F         16.40672       -2.76204        7.67419
F         15.41393       -2.08094        4.34507
F         14.28157       -1.90783        6.22354
F         15.61541       -4.71908        4.54644
F         13.56597       -3.91671        4.55183
F         15.47937       -5.33418        7.17319
F         13.95904       -6.23570        5.86427
F         13.70667       -3.70960        8.31973
F         13.10159       -5.83794        8.32553
H          3.34757        2.79819       -0.49946
H          2.79807        1.76702        0.69762
H          5.56635        2.71666       -0.91844
H          3.76304       -0.44691        0.54522
H          6.57406       -0.10191        1.32624
H          6.30442       -0.91295       -0.22082
H          4.84519       -2.62380        0.92722
H          5.04478       -1.75585        2.46292
H          7.52594       -2.04592        2.26707
H          7.33647       -3.09639        0.89474
H          7.05370       -4.92734        2.41935
H          5.56980       -4.15804        3.06461
H          7.48133       -2.48917        5.86196
H          7.10252       -1.26881        4.37373
H          7.25805       -4.29694        5.07708
H         10.05603       -4.75228        2.49332
H         13.28785       -2.13675        1.38580
H         10.00525       -0.60383        3.70663
H          9.90884       -1.60673        6.39003
H         11.99229       -2.24532        7.50263
H         11.37726       -6.34574        6.30547
H          9.29172       -5.70585        5.18857
