66

F          4.51936        3.19596       -0.58247
Ta         4.11551        4.51937        0.76899
C          2.02511        3.98343        0.17770
C          0.96242        3.81943        1.08526
C         -0.30826        3.38046        0.68202
C         -0.57632        3.09642       -0.65632
C          0.46098        3.25525       -1.58295
C          1.73202        3.67714       -1.17267
C          0.17783        2.90541       -3.01669
F         -0.97080        3.49658       -3.47977
F          1.17007        3.26833       -3.87035
F         -0.01022        1.55615       -3.19539
C         -1.37310        3.20369        1.72697
F         -1.05640        2.22333        2.62978
F         -1.57615        4.33676        2.46383
F         -2.58843        2.86144        1.20476
C          5.15142        3.58676        2.45059
C          4.94727        2.21226        2.72371
C          5.52343        1.58347        3.82731
C          6.36350        2.28570        4.71968
C          6.62664        3.63673        4.41412
C          6.03958        4.26508        3.31166
Si         6.98240        1.49387        6.30255
C          8.23616        0.07778        5.99728
C          9.27630        0.37361        4.90827
C         10.56760       -0.42614        4.97214
C         10.53074       -1.99790        4.90812
C          9.79667       -2.72011        3.71668
C         10.28951       -2.55497        2.22184
C         11.76676       -2.97356        1.86976
C         12.01675       -3.20914        0.33089
F         11.56278       -2.17485       -0.39804
F         13.34577       -3.32764        0.12922
F         11.42618       -4.33965       -0.09336
F         12.61612       -1.99837        2.26988
F         12.08976       -4.13167        2.50375
F          9.45425       -3.34495        1.48578
F         10.10184       -1.26862        1.84145
F          9.81389       -4.05139        4.00013
F          8.49657       -2.31055        3.71330
F         11.81489       -2.46137        4.93219
F          9.90915       -2.45337        6.03432
F         11.41403       -0.01624        3.96412
F         11.22380       -0.15817        6.15777
C          7.84649        2.78571        7.38253
C          5.54675        0.72269        7.26357
H          3.14378        4.69150        2.25688
H          5.10110        5.89092        0.15152
H          3.16187        6.02728        0.78578
H          1.13662        4.04223        2.13912
H         -1.56278        2.75869       -0.97080
H          2.51795        3.74904       -1.92681
H          4.29642        1.61877        2.07320
H          5.29717        0.52617        4.00550
H          7.28485        4.22277        5.06253
H          6.26216        5.32384        3.14144
H          7.68784       -0.84552        5.76102
H          8.73644       -0.09877        6.96312
H          9.62759        1.41732        4.96313
H          8.84108        0.25652        3.90673
H          8.74440        3.19799        6.90013
H          8.15645        2.33996        8.33888
H          7.17378        3.62638        7.60321
H          5.02206       -0.02401        6.65032
H          4.81233        1.48842        7.54955
H          5.89666        0.22225        8.17873
