52

C          3.90244        1.35155        3.41690
C          4.00492        1.20130        1.89716
C          5.44381        1.09484        1.38340
C          5.54352        1.01401       -0.14317
Nb         5.37168        2.76218       -1.55484
C          3.57624        3.77729       -2.40452
C          3.59956        3.86945       -3.93835
C          2.51200        4.81803       -4.48722
C          2.46325        4.90768       -5.99732
C          1.41544        5.91482       -6.56073
F          0.16612        5.59490       -6.14429
F          1.68356        7.17450       -6.14010
F          1.40820        5.92611       -7.91389
F          3.67596        5.29646       -6.52575
F          2.15484        3.68802       -6.56468
C          7.06206        3.90184       -2.40106
C          7.07247        5.43804       -2.37770
C          7.05983        6.06947       -0.97496
C          8.29999        5.76052       -0.13417
C          8.26744        6.41861        1.24852
C          9.51809        6.13862        2.08546
H          2.85558        1.40153        3.75575
H          4.40446        2.27164        3.75454
H          4.38058        0.50687        3.93987
H          3.53094        2.06240        1.39884
H          3.44105        0.30664        1.57535
H          5.90668        0.20261        1.86037
H          6.01423        1.97008        1.73991
H          4.88815        0.20169       -0.51321
H          6.57013        0.70694       -0.44327
H          5.45223        1.21706       -2.55702
H          6.24265        3.30170       -0.10429
H          4.32547        3.20116       -0.19166
H          3.59535        4.79301       -1.96015
H          2.63645        3.31469       -2.05578
H          3.46169        2.87100       -4.38074
H          4.57755        4.23220       -4.29715
H          2.67469        5.83390       -4.09512
H          1.51913        4.49289       -4.14116
H          6.95533        3.55786       -3.45768
H          8.02204        3.48789       -2.04586
H          6.18743        5.81135       -2.92340
H          7.94524        5.84476       -2.93083
H          6.17198        5.70907       -0.42833
H          6.95791        7.16645       -1.07466
H          9.20665        6.08944       -0.67676
H          8.37925        4.66840       -0.00863
H          7.37565        6.05982        1.78852
H          8.13785        7.50962        1.13320
H          9.65100        5.05798        2.24366
H          9.46463        6.61667        3.07503
H         10.42454        6.51181        1.58337
