70

C          1.60514       -1.70623       -3.13527
O          2.04851       -2.36294       -1.96505
C          3.46232       -2.27939       -1.81234
C          3.86562       -2.98276       -0.52275
O          5.27499       -2.94302       -0.45873
C          5.80861       -3.49844        0.75644
C          7.33642       -3.47815        0.69082
C          8.03281       -3.96580        1.94826
C          8.43988       -3.03154        2.93810
C          9.28825       -3.38529        4.04974
C          9.73052       -2.45422        4.97450
C          9.37978       -1.07755        4.91492
C          8.50734       -0.72661        3.85041
C          8.04478       -1.64494        2.92304
Si        10.11833        0.18381        6.04532
C         11.85991        0.71175        5.42443
C         12.82661       -0.47295        5.30338
C         14.15124       -0.10712        4.66031
C         15.28589       -1.19501        4.70191
C         15.02858       -2.63924        4.12875
C         14.68476       -2.87058        2.60094
C         15.72441       -2.38268        1.52347
C         15.52076       -3.01934        0.09605
F         14.24925       -2.89471       -0.31689
F         16.32245       -2.36781       -0.77575
F         15.86338       -4.31936        0.08435
F         15.62587       -1.03957        1.38043
F         16.98933       -2.69367        1.91569
F         14.56360       -4.22319        2.46550
F         13.48668       -2.30410        2.33229
F         16.14715       -3.36879        4.40548
F         13.99347       -3.18942        4.81997
F         16.39652       -0.70383        4.07822
F         15.60441       -1.39528        6.01824
F         13.98533        0.25863        3.34513
F         14.72261        0.98239        5.29242
C          9.09767        1.78093        6.11515
C         10.34202       -0.46952        7.81513
C          8.70503       -5.31847        1.87413
C          8.01079       -6.44107        2.67097
O          8.40451       -7.59274        2.74645
O          6.89231       -6.01516        3.28895
H          0.51500       -1.82710       -3.18551
H          2.05796       -2.14368       -4.04651
H          1.84781       -0.62572       -3.11481
H          3.78654       -1.22093       -1.77786
H          3.97418       -2.75796       -2.67016
H          3.48900       -4.02601       -0.53018
H          3.40607       -2.47067        0.34680
H          5.44006       -4.53529        0.88335
H          5.44987       -2.90830        1.62245
H          7.64092       -2.44631        0.43322
H          7.63505       -4.10382       -0.16841
H          9.59072       -4.42556        4.18323
H         10.37126       -2.81400        5.78758
H          8.17323        0.31152        3.74806
H          7.36261       -1.29226        2.14702
H         12.28250        1.48427        6.08673
H         11.71982        1.17667        4.43534
H         12.36985       -1.27167        4.69955
H         13.04844       -0.90265        6.29174
H          8.99305        2.23371        5.11865
H          9.57513        2.52422        6.77094
H          8.08685        1.58489        6.49984
H         10.90803       -1.41226        7.83684
H          9.36359       -0.66966        8.27473
H         10.87488        0.25759        8.44661
H          9.75431       -5.30770        2.22366
H          8.75155       -5.68235        0.83347
H          6.88779       -5.02708        3.02012
