24

N          1.43424        0.48659        0.16602
C          2.76558       -0.04171        0.27849
Nb         3.42941       -2.01308       -0.29808
S          1.65712       -3.65044       -0.63150
O          1.05939       -4.75632        0.13048
O          1.05858       -2.25441       -0.45426
C          0.96291       -4.02374       -2.41093
C          1.53851       -5.31547       -3.05759
F          1.13660       -6.42039       -2.40081
F          1.11946       -5.43093       -4.34783
F          2.88620       -5.28481       -3.06248
F         -0.38919       -4.16896       -2.30948
F          1.21594       -2.98777       -3.24690
S          5.83489       -2.06837       -0.88112
O          5.42130       -0.63694       -0.65086
O          7.09756       -2.49195       -0.28835
F          6.21798       -2.04093       -2.51525
H          1.25294        1.25849        0.80845
H          0.73108       -0.23847        0.30338
H          3.05429       -0.44644        1.31170
H          3.52467        0.70818        0.01762
H          4.56530       -2.51216        0.95160
H          3.51441       -2.49074       -2.00459
H          2.91750       -3.04678        1.03200
