32

C          0.80454       -0.25941       -0.28276
C          2.31420       -0.32854       -0.03226
C          2.66790       -0.66275        1.43557
C          4.14361       -0.64107        1.76819
C          4.79373       -1.93842        1.83982
C          4.85769       -2.67800        3.23118
F          3.60284       -2.88082        3.72392
F          5.45443       -3.91403        3.18860
F          5.53848       -1.95449        4.15364
F          4.14204       -2.90208        1.03298
F          6.15074       -1.95874        1.42280
C          4.78245        0.58984        2.12100
C          6.14819        0.73370        2.54283
C          6.70189        1.96092        2.87959
C          5.97609        3.16658        2.82998
C          4.64088        3.05454        2.41324
C          4.06517        1.83413        2.07221
C          6.58740        4.48488        3.23205
H          0.56720       -0.03817       -1.33493
H          0.33518        0.52305        0.33509
H          0.31531       -1.21275       -0.02501
H          2.78587        0.62793       -0.30966
H          2.77191       -1.09272       -0.67989
H          2.23755       -1.65176        1.66226
H          2.12395        0.04442        2.09216
H          6.78734       -0.14451        2.59910
H          7.75133        1.98576        3.19433
H          4.02386        3.95782        2.34434
H          3.02589        1.84178        1.74257
H          7.67401        4.49669        3.05130
H          6.44220        4.71544        4.30485
H          6.15141        5.32418        2.66672
