33

C          0.86079       -0.09008        0.03276
C          2.39297       -0.05968        0.02933
C          3.00730        0.05760        1.42851
C          4.53799        0.06297        1.44880
C          5.14561        0.18225        2.85367
N          6.55248        0.10446        2.83953
C          7.05907        0.19610        4.13909
C          8.59127        0.06504        4.17325
C          9.11337        0.14385        5.61333
C         10.60420        0.23002        5.81881
C         11.46885       -0.96301        5.29798
F         11.49673       -1.01623        3.95216
F         12.75348       -0.85641        5.72703
F         10.98386       -2.14234        5.75838
F         11.14388        1.36467        5.24622
F         10.88936        0.31528        7.17832
H          0.44524       -0.17441       -0.98333
H          0.44661        0.82383        0.48691
H          0.48305       -0.94273        0.61857
H          2.74275        0.78223       -0.59350
H          2.77713       -0.97185       -0.45986
H          2.64005       -0.77719        2.05346
H          2.63116        0.97877        1.91095
H          4.92450        0.89413        0.83266
H          4.92664       -0.86358        0.99025
H          4.65455       -0.61911        3.50303
H          4.74276        1.14838        3.31150
H          6.64349       -0.59277        4.86071
H          6.80455        1.17426        4.68377
H          9.02730        0.86551        3.55627
H          8.86272       -0.89106        3.70121
H          8.75254       -0.71633        6.19840
H          8.70723        1.04811        6.09842
