26

N          0.93385       -0.12651        0.23467
C          2.41201       -0.07864        0.11356
C          2.96191       -1.34940       -0.52324
C          4.49458       -1.37801       -0.63675
N          4.96992       -2.57587       -1.20195
C          6.37362       -2.55446       -1.29176
C          6.95794       -3.84123       -1.91285
C          6.39007       -4.06535       -3.31681
C          8.49013       -3.82198       -1.92275
H          0.60986        0.62898        0.84283
H          0.67973       -0.99618        0.71005
H          2.91460        0.07593        1.08923
H          2.66553        0.79147       -0.51518
H          2.52579       -1.48478       -1.52636
H          2.65131       -2.22697        0.07440
H          4.91034       -1.16764        0.40904
H          4.80647       -0.44191       -1.21438
H          6.89902       -2.40809       -0.28627
H          6.78407       -1.68164       -1.91113
H          6.61835       -4.67640       -1.27266
H          6.74359       -3.27349       -4.00066
H          5.29435       -3.99957       -3.26622
H          6.69281       -5.03939       -3.73905
H          8.86271       -3.00081       -2.55818
H          8.91134       -4.76344       -2.31371
H          8.88946       -3.66283       -0.90821
