27

N          2.23693        1.04552        1.14798
C          2.08072        0.10820        0.01908
C          2.82741        0.59987       -1.22404
C          4.36051        0.65828       -1.09426
C          5.07085        1.18837       -2.34171
In         7.30143        1.19876       -2.20590
C          8.27510       -0.80910       -2.51403
C          7.38165       -1.93256       -3.02902
N          6.37457       -2.32849       -2.01744
I          8.02309        2.45988       -4.77388
H          1.61882        0.78564        1.91752
H          1.95434        1.98218        0.85152
H          1.01737       -0.07207       -0.24626
H          2.49872       -0.86337        0.33465
H          2.44126        1.60068       -1.49840
H          2.56408       -0.06108       -2.06790
H          4.72133       -0.36220       -0.87540
H          4.61458        1.27337       -0.21581
H          4.74522        2.21467       -2.57736
H          4.81887        0.56754       -3.21802
H          8.04830        2.21477       -0.95733
H          8.77772       -1.13453       -1.58452
H          9.07177       -0.61549       -3.24829
H          7.99523       -2.80701       -3.34948
H          6.83123       -1.60059       -3.92562
H          6.86023       -2.59115       -1.15633
H          5.87473       -3.16488       -2.32723
