32

C          1.02415       -0.02100       -0.20739
B          2.50257       -0.38209        0.35357
S          3.35934        1.24927        1.03778
O          4.75471        1.03536        1.47361
O          3.09366        2.45003        0.22792
C          2.48066        1.74416        2.73333
C          2.95762        1.02293        4.02505
F          2.86879       -0.31717        3.91057
F          4.22556        1.34699        4.33939
F          2.17452        1.38815        5.08841
F          2.70341        3.07776        2.92502
F          1.12888        1.55544        2.63831
C          3.48214       -0.97164       -0.82024
C          4.92782       -1.39568       -0.49371
C          5.09215       -2.34570        0.70998
C          4.88707       -3.80931        0.39710
C          5.10824       -4.76549        1.61115
F          6.37314       -4.65655        2.09047
F          4.25552       -4.47907        2.61901
F          4.91594       -6.06077        1.26209
F          3.62292       -4.08415       -0.07179
F          5.76848       -4.24930       -0.57939
H          0.32987        0.35874        0.55548
H          0.57176       -0.93973       -0.61985
H          1.05393        0.71935       -1.02320
H          2.48337       -1.07190        1.36539
H          3.53061       -0.25559       -1.66034
H          2.92811       -1.84027       -1.22021
H          5.50960       -0.49823       -0.24527
H          5.41123       -1.84908       -1.37586
H          4.38858       -2.06342        1.50631
H          6.10747       -2.25983        1.12511
