41

N          1.19617       -4.46873       -1.37918
C          2.59691       -4.63062       -1.49880
N          3.25544       -5.73446       -1.38255
N          3.23815       -3.43298       -1.73434
C          4.69685       -3.34520       -1.73301
C          5.14075       -1.94690       -2.15694
C          6.66600       -1.73565       -2.11330
C          7.47106       -2.55198       -3.12549
Nb         9.63091       -2.56782       -3.06696
S         11.04197       -1.19445       -1.57361
O         10.24159       -0.91533       -0.36046
O         12.41431       -1.70972       -1.39742
C         11.51482        0.62486       -2.15471
C         10.41116        1.65621       -2.53462
F          9.41182        1.68130       -1.63220
F         10.94606        2.91497       -2.57959
F          9.88920        1.41194       -3.75250
F         12.19292        1.15505       -1.09353
F         12.37688        0.55562       -3.21067
C         10.24537       -3.84780       -4.75133
C         10.05407       -3.43651       -6.17124
O          9.43770       -4.06844       -7.01373
O         10.62133       -2.23692       -6.50104
H          0.69855       -5.35342       -1.41235
H          0.80408       -3.80741       -2.04747
H          2.61837       -6.53398       -1.32605
H          2.76152       -2.61504       -1.36485
H          5.07530       -4.11160       -2.42244
H          5.10673       -3.59122       -0.73590
H          4.66521       -1.20536       -1.48736
H          4.76745       -1.74092       -3.17430
H          7.02354       -1.94142       -1.08993
H          6.87405       -0.66999       -2.28744
H          7.16602       -2.31982       -4.16348
H          7.31092       -3.64931       -2.98527
H         10.21924       -3.36484       -1.58288
H         10.68251       -1.53945       -4.05903
H          9.17262       -0.89876       -3.12755
H          9.77599       -4.83255       -4.58097
H         11.32180       -3.90316       -4.50482
H         10.86129       -1.80945       -5.63744
