22

O          0.24181        1.42014       -1.43439
C          1.44276        0.84940       -1.59897
O          1.55574       -0.18717       -2.24290
C          2.62737        1.54435       -0.97727
C          3.87972        1.22034       -1.52449
C          5.04524        1.81626       -1.04479
C          4.96318        2.71698        0.02129
C          3.71712        3.01099        0.58417
C          2.50840        2.46382        0.09368
Ta         0.91824        3.44341        1.29314
S         -1.42713        3.00825        1.65494
O          1.33926        2.14622        2.73529
H          0.32765        2.32935       -0.97507
H          3.90992        0.49362       -2.33817
H          6.01121        1.57474       -1.49298
H          5.86812        3.17857        0.42455
H          3.69174        3.69791        1.44083
H          1.67720        4.85112        2.09072
H         -0.07251        4.91484        0.98322
H          0.43733        3.64737       -0.45604
H         -1.34135        1.72362        2.10573
H          1.85296        1.36557        2.47641
