29

C          6.45615        1.45036       -1.54127
S          5.21710        0.21511       -1.04763
C          5.96441       -0.42252        0.52040
C          5.08715       -1.47222        1.17455
Ga         5.88839       -2.08406        2.95966
C          4.46582       -3.22800        3.89908
C          3.37515       -3.70009        3.14133
C          2.33065       -4.45155        3.69072
C          2.33701       -4.76215        5.05355
C          3.38386       -4.29338        5.84675
C          4.43029       -3.53484        5.28069
C          5.52900       -3.07073        6.19387
O          6.71182       -3.07474        5.95579
O          5.09276       -2.62201        7.43510
S          7.78920       -3.36387        2.48203
H          6.09756        1.93312       -2.46035
H          7.43080        0.98347       -1.74382
H          6.57997        2.22001       -0.76526
H          6.10950        0.44512        1.18332
H          6.95684       -0.83066        0.27426
H          4.95566       -2.33446        0.50010
H          4.08474       -1.05753        1.37660
H          6.31972       -0.84394        3.85943
H          3.34018       -3.47071        2.07240
H          1.51184       -4.80015        3.05546
H          1.54143       -5.36621        5.49449
H          3.41021       -4.55728        6.90892
H          4.11995       -2.59659        7.40533
H          7.35557       -3.73212        1.25324
