28

N          6.61708       -2.13676        1.82924
C          6.03739       -1.61247        0.56938
C          4.56627       -1.99539        0.42847
C          3.94065       -1.47902       -0.87666
Ga         4.76586       -2.28033       -2.57190
C          3.39597       -2.55755       -4.07100
C          2.86031       -1.28498       -4.74454
C          3.95480       -0.58831       -5.55222
S          3.47221        1.02320       -6.28556
N          6.17388       -1.05641       -3.23150
H          7.62167       -1.94732        1.84474
H          6.53392       -3.15694        1.81633
H          6.57449       -1.96228       -0.33203
H          6.12743       -0.51258        0.59468
H          4.03356       -1.64058        1.33285
H          4.50488       -3.10066        0.44557
H          3.99634       -0.37574       -0.90518
H          2.86511       -1.72719       -0.88222
H          5.39282       -3.74310       -2.17830
H          2.55669       -3.11657       -3.61974
H          3.82279       -3.23206       -4.83610
H          2.48441       -0.57892       -3.98465
H          2.00131       -1.49063       -5.41840
H          4.31971       -1.24077       -6.35994
H          4.81510       -0.35707       -4.89625
H          2.40896        0.57576       -6.99733
H          6.88154       -1.58786       -3.74749
H          6.68421       -0.65699       -2.43874
