57

Cl         0.60936        1.64194       -0.38027
Al         2.43306        0.41131       -0.35386
C          3.69201        1.21284        1.12743
C          3.40382        0.86056        2.60885
C          4.24322        1.55348        3.73570
F          5.56736        1.34986        3.57180
F          4.02168        2.88260        3.78612
F          3.90293        1.04166        4.95270
F          2.09395        1.15161        2.88793
F          3.58373       -0.48790        2.78206
F          5.01313        0.79285        0.89301
F          3.73795        2.61242        1.06036
C          3.43970        0.65246       -2.07323
C          3.43891        1.85686       -2.80543
C          4.17620        2.01167       -3.98323
C          4.95788        0.95939       -4.50213
C          4.95577       -0.25397       -3.78492
C          4.21701       -0.39652       -2.60608
Si         6.02098        1.19105       -6.03213
C          7.77229        1.71986       -5.49771
C          8.76683        2.03031       -6.62558
C         10.15546        2.45362       -6.12962
C         11.13151        2.79278       -7.25975
C         12.52064        3.21810       -6.77473
C         13.48564        3.56660       -7.91148
C         14.87603        3.99776       -7.43488
C         15.82601        4.34697       -8.58289
C          6.13914       -0.42516       -7.01763
C          5.28900        2.53128       -7.15576
H          2.12624       -1.13755       -0.01722
H          2.83860        2.69906       -2.44704
H          4.13859        2.97212       -4.50751
H          5.53903       -1.10595       -4.15069
H          4.24490       -1.36023       -2.08620
H          8.17422        0.92285       -4.84773
H          7.66114        2.60098       -4.84200
H          8.36319        2.83249       -7.26815
H          8.87919        1.14932       -7.28216
H         10.57873        1.64691       -5.50565
H         10.04887        3.32661       -5.46201
H         10.70168        3.59971       -7.87982
H         11.23202        1.91972       -7.92909
H         12.95604        2.41006       -6.16064
H         12.42075        4.08788       -6.10170
H         13.04745        4.37288       -8.52655
H         13.58667        2.69612       -8.58411
H         15.31567        3.19154       -6.82353
H         14.77479        4.86606       -6.76197
H         15.97140        3.48643       -9.25341
H         16.81527        4.65290       -8.21381
H         15.42657        5.17292       -9.19072
H          6.57881       -1.23288       -6.41495
H          6.76117       -0.30164       -7.91645
H          5.14161       -0.75712       -7.33919
H          5.23803        3.50316       -6.64440
H          4.26820        2.26438       -7.46435
H          5.89372        2.66310       -8.06491
