26

S          1.20982       -0.26687       -0.17637
C          3.03325       -0.15904        0.03277
C          3.35283        0.97495        1.00437
C          4.87115        1.11206        1.18334
C          5.36694        2.02075        2.34025
C          5.16451        3.48869        2.00180
F          3.93043        3.82010        1.56839
F          5.48659        4.33924        2.99835
F          6.01813        3.88086        0.91731
C          4.52938        1.57062        3.67432
O          4.82811        0.41235        4.04457
O          3.68092        2.38427        4.08808
C          6.87358        1.66722        2.52435
C          7.81458        2.57278        3.31255
O          8.23277        2.33540        4.42272
O          8.29455        3.67266        2.64140
H          1.20555       -1.26849       -1.08826
H          3.49035        0.02253       -0.95131
H          3.40463       -1.11641        0.42451
H          2.88754        0.76970        1.97971
H          2.91302        1.91038        0.63180
H          5.33655        1.43180        0.23303
H          5.27298        0.11521        1.42130
H          7.33446        1.51792        1.53105
H          6.84331        0.70600        3.05529
H          7.76421        3.80103        1.83109
