34

N          1.05799       -0.04708       -0.34929
C          2.52037        0.15402       -0.25456
C          2.91364        0.64851        1.13344
C          4.42724        0.85686        1.26252
C          4.91988        1.62829        2.51095
C          4.51803        3.18059        2.44453
O          5.04692        3.90814        3.33179
O          3.73039        3.52877        1.52372
C          4.30478        0.97638        3.77812
C          4.83875        1.44445        5.13211
N          4.03582        0.83040        6.22249
C          6.46061        1.54040        2.57989
C          7.18320        2.11118        1.35926
N          8.62979        2.25379        1.64761
H          0.79181       -0.21462       -1.32159
H          0.59820        0.82630       -0.08047
H          2.90563        0.87677       -1.00115
H          3.00603       -0.81479       -0.46692
H          2.54169       -0.06971        1.88170
H          2.43214        1.62297        1.31515
H          4.76204        1.41216        0.37266
H          4.92906       -0.13215        1.23953
H          4.42684       -0.12265        3.71774
H          3.21598        1.16236        3.76534
H          4.84864        2.54584        5.14178
H          5.87705        1.10170        5.26786
H          3.06434        1.13313        6.11041
H          4.33642        1.22351        7.11743
H          6.78411        0.49490        2.74233
H          6.78070        2.13111        3.45215
H          6.70218        3.06732        1.08471
H          7.08664        1.43377        0.49580
H          8.72763        2.89394        2.44014
H          9.08624        2.72279        0.86187
