61

S          1.00144        0.26236       -0.39459
Sb         3.60653       -0.15712        0.29264
C          4.11457       -0.80534       -1.85800
C          5.46255       -0.81128       -2.24532
C          5.84290       -1.04692       -3.57157
C          4.88209       -1.30236       -4.57330
C          3.53022       -1.32709       -4.17262
C          3.15611       -1.07754       -2.84576
Si         5.40700       -1.50444       -6.36238
C          6.89576       -2.69774       -6.46487
C          6.63114       -4.09291       -5.88345
C          7.88386       -4.95096       -5.85371
C          7.76123       -6.38361       -5.22048
C          6.79598       -7.45609       -5.85550
C          7.02088       -8.01178       -7.32230
C          8.40916       -8.67076       -7.66897
C          8.38288       -9.59006       -8.94982
F          7.81384       -8.95618       -9.99252
F          9.65366       -9.89960       -9.27928
F          7.71884      -10.73580       -8.71883
F          9.32349       -7.69836       -7.89379
F          8.82925       -9.44876       -6.63796
F          6.06142       -8.97075       -7.48894
F          6.77747       -7.01959       -8.21278
F          6.81212       -8.53056       -5.02067
F          5.53072       -6.94786       -5.85655
F          9.00243       -6.95083       -5.17263
F          7.32181       -6.22670       -3.93916
F          8.41116       -5.11403       -7.11818
F          8.86313       -4.33868       -5.10356
C          4.00035       -2.17573       -7.43804
C          6.00532        0.13281       -7.10337
C          3.94233        1.97072       -0.43388
C          3.03397        3.02719        0.17521
C          3.37634        4.42450       -0.35146
S          2.33572        5.79926        0.30423
H          0.65415       -0.99259       -0.03097
H          3.25379        0.43617        1.93560
H          3.11091       -1.80375        0.71627
H          5.31877       -0.43004        0.68558
H          6.23796       -0.61290       -1.49591
H          6.90851       -1.01797       -3.82818
H          2.74785       -1.52779       -4.91229
H          2.09566       -1.05432       -2.57451
H          7.73117       -2.22438       -5.92565
H          7.21168       -2.77863       -7.51724
H          5.86794       -4.62310       -6.47001
H          6.25437       -4.02112       -4.85180
H          3.61669       -3.13706       -7.06798
H          4.34418       -2.32232       -8.47293
H          3.15513       -1.47345       -7.46581
H          6.82280        0.55766       -6.50372
H          5.19146        0.87122       -7.12206
H          6.37028        0.00007       -8.13317
H          3.81721        1.90652       -1.52441
H          5.00511        2.16581       -0.21249
H          3.10273        3.02295        1.27564
H          1.98242        2.80115       -0.06572
H          3.32909        4.45068       -1.44936
H          4.39876        4.71332       -0.06246
H          1.14760        5.28696       -0.09553
