33

C          1.27323       -3.38453       -1.81967
C          2.78867       -3.21969       -1.65648
C          3.22088       -2.97267       -0.20546
C          4.73154       -2.74479       -0.00140
C          5.13101       -2.44383        1.44651
In         7.30932       -2.02157        1.87569
C          8.35734       -0.77629        0.30613
C          9.28196       -1.50548       -0.68330
C          8.50009       -2.39501       -1.65975
C         10.17193       -0.52559       -1.47246
S          8.52942       -4.29556        1.61900
H          0.98453       -3.55040       -2.86910
H          0.73877       -2.48898       -1.46558
H          0.90024       -4.23839       -1.23287
H          3.13401       -2.38075       -2.28515
H          3.30025       -4.11693       -2.04474
H          2.89929       -3.82642        0.41884
H          2.67479       -2.09446        0.18593
H          5.04780       -1.91799       -0.66396
H          5.27705       -3.63527       -0.36218
H          4.85291       -3.29513        2.09228
H          4.55745       -1.57527        1.81836
H          7.53151       -1.42711        3.54477
H          8.94004       -0.02578        0.86710
H          7.59190       -0.21282       -0.26005
H          9.95589       -2.16727       -0.10849
H          7.78727       -1.79016       -2.24638
H          7.93381       -3.16878       -1.12351
H          9.17452       -2.89996       -2.37077
H          9.55182        0.15371       -2.08193
H         10.86242       -1.05266       -2.15435
H         10.77434        0.09700       -0.79357
H          7.84057       -4.89017        2.61950
