45

C          0.54268       -0.49041       -0.39729
C          2.05204       -0.44369       -0.10362
C          2.95499       -0.54629       -1.33790
Ga         4.93074       -0.88450       -0.92297
C          5.85820        0.57167        0.18506
C          5.23975        0.79275        1.56935
C          6.10700        1.58856        2.56051
C          5.43125        1.84126        3.91364
C          5.99747       -1.27483       -2.63229
C          7.49011       -1.45972       -2.35454
C          8.32837       -1.93610       -3.55248
C          9.83073       -1.96158       -3.27378
N         10.56412       -2.47617       -4.42702
C         11.94135       -2.49255       -4.48699
N         12.78867       -2.19525       -3.55796
N         12.42479       -2.88912       -5.75067
H         -0.06862       -0.38484        0.51628
H          0.26922       -1.44641       -0.87270
H          0.24931        0.31225       -1.09326
H          2.29748       -1.25766        0.60213
H          2.27726        0.48893        0.44279
H          2.83062        0.35121       -1.97189
H          2.62934       -1.40390       -1.95729
H          4.99827       -2.23967       -0.00409
H          5.90951        1.52978       -0.36425
H          6.90453        0.23309        0.30712
H          5.00050       -0.18431        2.03041
H          4.26687        1.30744        1.46374
H          6.39124        2.55199        2.10147
H          7.05332        1.04098        2.71661
H          4.51534        2.44132        3.79302
H          6.08959        2.37676        4.61592
H          5.13590        0.89369        4.39133
H          5.85129       -0.47364       -3.37980
H          5.58025       -2.19725       -3.07621
H          7.62737       -2.18062       -1.52703
H          7.91528       -0.50823       -1.98634
H          8.13409       -1.27153       -4.41481
H          7.99642       -2.94511       -3.85317
H         10.04128       -2.60448       -2.40224
H         10.17322       -0.94122       -3.01204
H         10.09269       -2.35388       -5.31868
H         12.31014       -1.80579       -2.74160
H         11.94102       -3.69977       -6.13162
H         13.42732       -3.05102       -5.69593
