45

C          2.36126        2.32229        2.49901
C          2.03248        1.27698        1.42401
C          3.07211        1.29172        0.28763
Al         3.23194        2.84130       -0.98003
S          1.22778        2.27253       -2.32042
O          1.31792        0.97449       -3.02140
O          0.02688        2.49867       -1.48247
C          0.82335        3.52060       -3.81084
C          1.90248        3.82107       -4.89468
C          2.45574        2.61167       -5.73286
C          3.22496        3.02909       -7.04307
F          4.17220        3.95373       -6.79148
F          3.83303        1.93430       -7.55686
F          2.39185        3.51197       -7.98624
F          3.32898        1.90506       -4.98036
F          1.44112        1.79971       -6.13159
F          1.37152        4.72439       -5.79423
F          2.96041        4.42269       -4.28647
F         -0.29612        3.04426       -4.42629
F          0.51284        4.73380       -3.26192
C          2.95089        4.74750       -0.43050
C          4.03659        5.64110       -0.53192
C          3.94093        6.98371       -0.14620
C          2.73928        7.50262        0.35272
C          1.64314        6.63074        0.45357
C          1.74857        5.29061        0.07278
C          2.61482        8.95623        0.74220
C          1.91336       -0.11634        2.06438
H          2.41563        3.33407        2.07441
H          3.33907        2.10205        2.96111
H          1.60701        2.32825        3.30192
H          1.04652        1.52884        0.99567
H          2.91603        0.41265       -0.36446
H          4.08176        1.14350        0.72242
H          4.48312        2.70816       -1.99691
H          4.99047        5.28252       -0.93352
H          4.81089        7.64219       -0.23881
H          0.69005        7.01212        0.83416
H          0.86294        4.65389        0.15315
H          3.60213        9.43096        0.83304
H          2.09072        9.07385        1.70269
H          2.04221        9.52550       -0.00806
H          2.87587       -0.41720        2.51241
H          1.64475       -0.87394        1.31329
H          1.14995       -0.13846        2.86021
