20

O          3.43307        0.90863       -0.44169
C          2.59945        0.09807       -0.03272
O          1.38027       -0.07996       -0.18087
C          3.23611       -1.08592        0.99812
S          2.77934       -0.72601        2.75735
O          1.35110       -0.92902        2.93715
O          3.72300       -1.32228        3.69104
C          3.05252        1.15663        2.97576
F          4.29255        1.53161        2.63510
F          2.15710        1.88366        2.30293
F          2.88332        1.39388        4.30265
C          2.58891       -2.44133        0.71494
O          2.96084       -2.80319       -0.64899
C          2.70415       -4.05830       -1.00959
F          3.40806       -4.99580       -0.29027
F          1.38773       -4.41772       -0.88167
F          3.04553       -4.21214       -2.30677
Cl         5.02017       -1.21931        0.91864
H          1.50123       -2.31464        0.76484
H          2.94667       -3.22617        1.39717
