25

I          1.20855       -1.73540       -0.05351
Al         3.48588       -0.43164        0.14637
C          4.53107       -0.43616       -1.60122
C          5.81587       -1.01314       -1.54005
C          6.67275       -1.07591       -2.64412
C          6.26316       -0.55680       -3.87523
C          4.98972        0.00195       -3.98517
C          4.13399        0.05491       -2.86748
C          2.77251        0.66733       -2.99189
O          2.16022        1.17275       -2.08004
O          2.20428        0.63893       -4.25119
C          3.39084        1.27646        1.23079
O          2.65553        2.43875        0.68195
C          2.71005        3.55465        1.38310
F          3.98308        4.07447        1.53257
F          1.97360        4.51245        0.76156
F          2.22137        3.45342        2.66977
H          4.41347       -1.33810        1.14141
H          6.14887       -1.42951       -0.58408
H          7.66418       -1.52584       -2.54557
H          6.92946       -0.58019       -4.74000
H          4.69131        0.44231       -4.94253
H          2.76873        0.08523       -4.81861
H          4.43004        1.60004        1.41856
H          2.94550        1.03570        2.21071
