37

C          0.54766       -0.72369        2.72779
C          2.07610       -0.76257        2.81327
C          2.71553       -1.87331        1.97162
C          4.24990       -1.90915        2.05440
C          4.92696       -3.04171        1.27563
Ga         6.95861       -3.00424        1.45069
C          7.67433       -1.86198       -0.15864
F          7.18371       -0.55706       -0.22083
F          9.05915       -1.69566       -0.19598
F          7.37558       -2.38140       -1.42551
C          7.90807       -4.79737        1.36043
C          7.57459       -5.68593        0.15965
C          8.34228       -7.01685        0.12264
C          8.01683       -7.87939       -1.09317
N          8.77959       -9.14572       -1.07387
H          0.11977        0.07922        3.34788
H          0.10825       -1.67532        3.06560
H          0.21272       -0.55922        1.69189
H          2.38268       -0.88885        3.86611
H          2.48715        0.21126        2.49637
H          2.41043       -1.75406        0.91583
H          2.31245       -2.85155        2.29328
H          4.54288       -1.97166        3.11840
H          4.64179       -0.93622        1.70690
H          4.65239       -2.98081        0.20777
H          4.54983       -4.01647        1.63599
H          7.39387       -2.19561        2.77169
H          7.68742       -5.34005        2.29806
H          8.99348       -4.59244        1.37958
H          7.77522       -5.13522       -0.77608
H          6.49088       -5.90451        0.14725
H          8.13802       -7.59391        1.04042
H          9.42731       -6.80018        0.13024
H          8.19082       -7.28079       -2.00981
H          6.94411       -8.13560       -1.08292
H          9.77742       -8.92791       -1.02047
H          8.64891       -9.64807       -1.95396
