55

N          1.12193        0.41022        0.14516
C          1.99117       -0.68629        0.48674
S          2.41887       -0.79974        2.11689
O          1.44153       -0.07307        2.93804
O          2.87781       -2.12426        2.53642
C          3.98713        0.25662        2.47015
F          3.80716        1.54348        2.04472
F          4.31650        0.31962        3.79078
F          5.07245       -0.22801        1.81019
C          2.54565       -1.49656       -0.56830
C          3.52279       -2.52310       -0.40507
C          3.98751       -3.26057       -1.48539
C          3.53519       -3.05523       -2.81152
C          2.57414       -2.03174       -2.97349
C          2.10102       -1.27718       -1.90758
Si         4.16433       -4.04198       -4.25972
C          5.12397       -5.56485       -3.63183
C          5.60117       -6.55519       -4.70346
C          6.35411       -7.76257       -4.13058
C          6.78562       -8.78326       -5.18742
C          7.53872       -9.98582       -4.61084
C          7.94547      -11.02086       -5.66370
C          8.70130      -12.22294       -5.08939
C          9.09350      -13.25351       -6.15096
C          2.72567       -4.62965       -5.35500
C          5.31700       -3.01233       -5.36984
H          1.64376        1.28054       -0.00505
H          0.47981        0.58411        0.91823
H          3.90118       -2.74335        0.59133
H          4.73387       -4.03479       -1.28262
H          2.17440       -1.81273       -3.97029
H          1.35295       -0.50226       -2.07516
H          4.47638       -6.08857       -2.90711
H          5.99051       -5.20711       -3.04829
H          6.25430       -6.04080       -5.43066
H          4.73674       -6.92149       -5.28479
H          5.71430       -8.26160       -3.38140
H          7.24179       -7.40638       -3.57831
H          7.41937       -8.28437       -5.94233
H          5.89323       -9.14092       -5.73165
H          6.91114      -10.47402       -3.84423
H          8.44021       -9.63077       -4.08056
H          8.57014      -10.53339       -6.43357
H          7.04257      -11.37833       -6.19055
H          8.07903      -12.70637       -4.31719
H          9.60598      -11.86624       -4.56827
H          8.20486      -13.65285       -6.66297
H          9.63555      -14.10351       -5.71248
H          9.74136      -12.80491       -6.91930
H          2.06289       -5.30997       -4.80111
H          3.08121       -5.15089       -6.25668
H          2.11682       -3.77450       -5.68353
H          6.19085       -2.66081       -4.80227
H          4.79064       -2.12207       -5.74452
H          5.67764       -3.58157       -6.24057
