39

C          4.32863       -3.80885        0.21166
S          3.81646       -2.75029        1.59176
C          4.08144       -1.02971        1.01104
C          4.67660       -0.44683        2.28769
Ta         5.90554       -2.12863        3.19404
S          4.29514       -2.13612        5.18924
O          5.38066       -2.60658        6.10150
O          3.47200       -0.99921        5.64621
C          2.92281       -3.54242        5.47092
C          3.22103       -5.03746        5.17947
F          4.35006       -5.45488        5.77780
F          2.20126       -5.82553        5.65029
F          3.31262       -5.28116        3.85410
F          2.59149       -3.46543        6.79480
F          1.81037       -3.21333        4.74005
C          8.06877       -2.06418        3.51076
C          9.07632       -1.67556        2.60095
C         10.43525       -1.74684        2.92196
C         10.85826       -2.23187        4.16848
C          9.87370       -2.62493        5.08815
C          8.51554       -2.53782        4.77091
C         12.32528       -2.35456        4.50170
H          4.37742       -4.83397        0.60099
H          5.32431       -3.49909       -0.13149
H          3.59419       -3.76305       -0.60314
H          3.14237       -0.59422        0.62534
H          4.82800       -1.07975        0.20704
H          3.89249       -0.10142        2.97667
H          5.35303        0.40000        2.09107
H          5.90559       -0.78127        4.34035
H          6.45336       -2.02246        1.46691
H          5.42380       -3.81208        3.54735
H          8.78590       -1.31065        1.61287
H         11.18554       -1.42726        2.19102
H         10.17678       -2.99500        6.07292
H          7.78136       -2.83110        5.52794
H         12.93550       -1.68575        3.87805
H         12.68953       -3.38182        4.33483
H         12.51995       -2.11197        5.55671
