39

I          3.51871        0.18429       -2.46616
Al         3.25409        0.32094        0.18098
C          4.47213       -1.10390        0.95959
C          5.60296       -0.75309        1.72798
C          6.44364       -1.70316        2.31115
C          6.16901       -3.07018        2.14417
C          5.05417       -3.45941        1.38587
C          4.23524       -2.48607        0.80986
C          7.07736       -4.09634        2.75268
C          7.02275       -4.28847        4.31785
C          5.66491       -4.66939        5.02070
C          4.94838       -6.05537        4.74252
C          5.75146       -7.38543        5.00076
C          4.84369       -8.66748        5.13795
F          3.96796       -8.75986        4.12064
F          5.63951       -9.75839        5.11657
F          4.16634       -8.67019        6.30014
F          6.59879       -7.60841        3.96882
F          6.46716       -7.29140        6.15248
F          3.86687       -6.06972        5.57974
F          4.49207       -6.07460        3.46840
F          5.90558       -4.62381        6.36566
F          4.74259       -3.72014        4.72889
F          7.93894       -5.23823        4.68219
F          7.40082       -3.11275        4.89702
F          6.87880       -5.34776        2.21217
F          8.40708       -3.77839        2.52264
C          1.32543       -0.03305        0.62351
C          1.01615        0.03219        2.13082
H          3.80633        1.77439        0.66382
H          5.83887        0.30621        1.87016
H          7.31824       -1.38887        2.88368
H          4.84054       -4.51854        1.23830
H          3.38389       -2.82274        0.21048
H          1.02995       -1.01869        0.22281
H          0.70523        0.70033        0.07948
H          1.58855       -0.72344        2.69320
H         -0.05081       -0.13397        2.36876
H          1.28922        1.01160        2.55666
