17

S          0.82313        0.61197       -0.39678
C          2.30030        0.12912        0.40128
S          2.84818        1.04259        1.71475
O          1.75192        1.74825        2.36905
O          3.85229        0.35044        2.51505
C          3.84369        2.50312        1.00938
F          3.09060        3.26280        0.17320
F          4.29157        3.31975        2.00284
F          4.92864        2.08545        0.31137
C          3.04778       -1.04675       -0.10531
C          2.60526       -2.44843        0.45041
F          1.29276       -2.68455        0.19626
F          3.31036       -3.47187       -0.11542
F          2.78749       -2.53109        1.78471
F          2.90682       -1.18561       -1.49071
F          4.40577       -0.98974        0.13432
H         -0.12260        0.02290        0.39574
