21

S          1.54169       -0.75162        0.83705
In         3.20969        0.77954       -0.19482
C          4.57942       -0.60763       -1.45707
C          5.08201       -0.13232       -2.84173
C          6.04697        1.09716       -2.83964
F          7.22989        0.79983       -2.27292
F          6.28913        1.48081       -4.12228
F          5.50235        2.14306       -2.19268
F          5.74248       -1.13300       -3.51987
F          3.99141        0.21399       -3.59764
F          5.71322       -1.00064       -0.74619
F          3.89016       -1.79242       -1.72978
S          4.80498        1.51748        1.75742
O          6.02739        2.18490        1.24274
O          4.04286        2.23560        2.80923
C          5.40226       -0.00781        2.56672
H          2.17523       -1.85364        0.37110
H          2.54976        2.20819       -0.93804
H          5.99569       -0.57697        1.84189
H          4.53287       -0.58062        2.91159
H          6.01957        0.32361        3.41249
