48

C          8.56205        4.16375        3.52231
C          7.46609        3.30311        4.15795
C          7.03714        2.11412        3.29074
C          5.94373        1.25126        3.93333
C          5.33530        0.18709        3.00323
C          6.27254       -0.95175        2.57184
In         6.97233       -2.41984        4.16468
C          5.71936       -2.09465        6.05425
C          6.03620       -3.13475        7.09848
S          5.03192       -2.92936        8.65962
C          5.62120       -4.35230        9.62776
C          9.10797       -1.93161        4.75392
C         10.14532       -2.97627        4.34286
C         11.60207       -2.66433        4.73013
C         12.59556       -3.75029        4.30299
C         14.04916       -3.45135        4.67941
H          8.83525        5.01650        4.16234
H          8.23690        4.56781        2.55074
H          9.47457        3.57523        3.34384
H          6.58327        3.93225        4.36927
H          7.81283        2.93240        5.13726
H          7.91897        1.49183        3.06587
H          6.67376        2.49463        2.31739
H          5.13553        1.92148        4.28117
H          6.35030        0.76188        4.83471
H          4.92705        0.72801        2.12059
H          4.45580       -0.23902        3.51610
H          7.16804       -0.54370        2.07177
H          5.76087       -1.56383        1.81077
H          6.82002       -4.12562        3.62801
H          4.65149       -2.11930        5.78519
H          5.94286       -1.08343        6.43125
H          7.09307       -3.09223        7.40739
H          5.82870       -4.15404        6.73654
H          5.05994       -4.37647       10.57167
H          6.69362       -4.26678        9.85779
H          5.44428       -5.29522        9.08935
H          9.13464       -1.78438        5.84891
H          9.35826       -0.95302        4.30559
H         10.10715       -3.12904        3.24815
H          9.87516       -3.95683        4.77618
H         11.66266       -2.51970        5.82451
H         11.89757       -1.69761        4.28234
H         12.52085       -3.89407        3.21111
H         12.28961       -4.71090        4.75235
H         14.39476       -2.51494        4.21460
H         14.73045       -4.25434        4.35821
H         14.16068       -3.33551        5.76868
