16

N          1.01301        0.04824       -0.00344
C          2.47571       -0.08845        0.22007
C          2.96634        0.83911        1.33655
N          4.36927        0.82708        1.44721
C          4.80346        1.64090        2.50489
N          6.28232        1.61818        2.69168
H          0.77025       -0.30728       -0.93005
H          0.80611        1.05187       -0.02800
H          3.07950        0.14312       -0.67840
H          2.69195       -1.13353        0.49697
H          2.41723        0.55464        2.28959
H          2.52150        1.87452        1.09483
H          4.36214        1.36591        3.51598
H          4.53240        2.74048        2.39013
H          6.65165        1.85340        1.76169
H          6.50458        0.61672        2.76151
