35

N          3.04230       -1.04918        1.77996
C          2.58763       -0.37961        0.52168
C          3.31323        0.90166        0.24462
S          2.52011        2.33039        0.44438
O          3.19624        3.45914       -0.21227
O          1.05718        2.20717        0.36029
C          2.67718        2.93520        2.29096
C          1.86320        4.15203        2.82479
C          1.98310        5.51173        2.05602
F          3.26627        5.88119        1.88835
F          1.36759        5.47894        0.86954
F          1.37468        6.48234        2.80254
F          0.53982        3.84183        2.87666
F          2.26457        4.42434        4.12324
F          2.31117        1.88659        3.12057
F          4.00246        3.19227        2.55220
C          4.80411        0.89454       -0.00879
C          5.18923        0.30028       -1.38404
C          4.72534        1.15201       -2.56723
C          4.82773        0.43039       -3.90650
N          4.42372        1.31629       -5.01593
H          2.46045       -1.87526        1.94838
H          2.85521       -0.40675        2.55397
H          1.50326       -0.17963        0.50732
H          2.78882       -1.10455       -0.29142
H          5.31716        0.30628        0.77314
H          5.19448        1.92087        0.05438
H          4.75426       -0.71166       -1.46942
H          6.28500        0.16470       -1.42751
H          5.30366        2.08927       -2.61048
H          3.67668        1.44699       -2.38961
H          4.22403       -0.49877       -3.84927
H          5.87059        0.11693       -4.08971
H          3.51664        1.73154       -4.79159
H          4.28524        0.77453       -5.87040
