48

C          0.30837        2.60084       -1.74469
C          1.72302        3.05804       -1.37606
C          2.82316        2.21526       -2.03007
C          4.25723        2.64225       -1.67049
C          5.33684        1.78192       -2.30454
Sb         7.47790        2.26210       -1.64623
C          7.93890        0.06247       -2.27271
O          9.25637       -0.07223       -2.93380
C          9.54063       -1.24459       -3.47077
F          8.67077       -1.64868       -4.46265
F         10.77589       -1.19056       -4.04184
F          9.56800       -2.29393       -2.57602
C          8.02618        2.88120       -3.78066
C          7.69071        4.33005       -4.09670
C          8.01480        4.76003       -5.53868
C          7.74576        6.24188       -5.80445
N          8.09501        6.60079       -7.17674
C          8.01382        7.90151       -7.63537
N          7.52121        8.93222       -7.03285
N          8.55718        8.05983       -8.92537
H         -0.46403        3.21506       -1.25764
H          0.14072        1.55468       -1.44492
H          0.14381        2.65825       -2.83187
H          1.84709        3.02503       -0.28012
H          1.85577        4.11516       -1.66327
H          2.70192        2.24892       -3.12829
H          2.68452        1.15581       -1.74771
H          4.36912        2.61920       -0.56974
H          4.39961        3.69924       -1.95982
H          5.30854        1.84706       -3.40527
H          5.19915        0.72330       -2.02642
H          7.03266        1.66294       -0.00037
H          7.03807        3.96008       -1.21414
H          9.18398        2.48025       -1.13065
H          7.17047       -0.27262       -2.98500
H          7.93691       -0.58412       -1.38188
H          7.48387        2.18995       -4.44620
H          9.10398        2.68244       -3.88595
H          8.23042        4.99494       -3.39820
H          6.61760        4.51790       -3.90731
H          7.42983        4.15055       -6.24815
H          9.07911        4.54495       -5.74544
H          8.31548        6.85519       -5.07948
H          6.67742        6.46391       -5.64461
H          8.84606        6.04800       -7.58115
H          7.28229        8.70770       -6.06352
H          8.27786        7.33076       -9.57823
H          8.33006        8.98502       -9.28164
