33

C          2.01042        1.13003       -0.64755
C          2.45722       -0.12009        0.15066
C          3.01936        0.09838        1.52762
S          2.04257       -0.13322        2.85973
O          0.89092       -1.00801        2.54222
O          2.84126       -0.42389        4.07206
C          1.18450        1.42498        3.35565
C          4.46049        0.47538        1.73856
C          4.76637        1.97730        1.68781
O          6.17999        2.19265        1.88759
C          6.53720        3.55374        1.91353
C          8.02934        3.61390        2.21101
O          8.45266        4.97634        2.20966
C          9.82909        5.10226        2.49796
H          1.61521        0.85841       -1.64449
H          2.84367        1.83404       -0.79962
H          1.21988        1.67069       -0.10433
H          3.21587       -0.65204       -0.46342
H          1.59623       -0.80284        0.22662
H          0.57399        1.76627        2.50990
H          1.94461        2.17650        3.60484
H          0.54791        1.22260        4.22982
H          5.08643       -0.01446        0.96506
H          4.80773        0.10139        2.71433
H          4.20230        2.50509        2.48137
H          4.46639        2.41623        0.71596
H          5.97484        4.10628        2.69460
H          6.32623        4.05163        0.94346
H          8.58396        3.03608        1.44571
H          8.23113        3.14702        3.19464
H         10.07196        6.17303        2.47388
H         10.45567        4.57532        1.75076
H         10.07773        4.69982        3.50002
