67

C          0.51208        0.48147        0.38587
C          1.99246        0.75914        0.66240
C          2.74569        1.33320       -0.54263
C          4.22417        1.64062       -0.27215
C          4.99738        2.22746       -1.45938
B          6.56200        2.63558       -1.13021
C          7.45504        1.33922       -0.71880
C          7.46853        0.14273       -1.47446
C          8.24566       -0.96260       -1.12524
C          9.07683       -0.94556        0.01658
C          9.08714        0.24367        0.77403
C          8.30047        1.33983        0.41177
Si        10.06133       -2.44780        0.50991
C         11.34007       -2.86980       -0.85201
C         12.14894       -4.14478       -0.58976
C         13.15835       -4.48158       -1.66543
F         14.10140       -3.51025       -1.82674
F         13.83947       -5.63539       -1.37146
F         12.58331       -4.67675       -2.88586
C         10.99927       -2.15606        2.13137
C          8.92939       -3.95574        0.72912
C          7.27778        3.39825       -2.41522
C          6.70394        4.78727       -2.71502
C          7.39625        5.52795       -3.86467
C          6.85387        6.93744       -4.09383
N          7.55755        7.59456       -5.19096
C          7.29452        8.89798       -5.55830
N          6.36096        9.67838       -5.12378
N          8.19345        9.38134       -6.52991
H         -0.00324        0.06862        1.26659
H          0.39202       -0.23803       -0.43890
H         -0.01431        1.40323        0.09280
H          2.48824       -0.17151        0.98783
H          2.08334        1.45967        1.51048
H          2.23947        2.25722       -0.87865
H          2.66838        0.62538       -1.38876
H          4.72354        0.71593        0.07051
H          4.29303        2.34429        0.57795
H          4.44874        3.12256       -1.81371
H          4.94543        1.50754       -2.30404
H          6.57731        3.42554       -0.16407
H          6.83541        0.07426       -2.36529
H          8.19739       -1.86236       -1.75073
H          9.71287        0.31228        1.67013
H          8.32449        2.24139        1.03238
H         12.01491       -2.00577       -0.95618
H         10.80040       -2.95497       -1.80832
H         11.49351       -5.02440       -0.50198
H         12.71844       -4.07411        0.34951
H         11.71088       -1.32308        2.03884
H         11.56247       -3.04982        2.43852
H         10.30168       -1.90924        2.94433
H          8.36681       -4.16172       -0.19304
H          8.19404       -3.75706        1.52184
H          9.48197       -4.86699        1.00315
H          7.20189        2.77446       -3.33050
H          8.36310        3.50938       -2.22446
H          6.76973        5.40070       -1.79816
H          5.62635        4.70686       -2.94413
H          7.29713        4.94625       -4.79718
H          8.47940        5.59150       -3.64923
H          6.94317        7.52454       -3.15888
H          5.78024        6.89013       -4.34211
H          8.52002        7.29332       -5.31700
H          5.86812        9.24869       -4.33655
H          8.36472        8.72211       -7.28644
H          7.86459       10.27625       -6.88446
