70

N          1.65820        1.02681       -0.24120
C          3.09713        0.66491       -0.12069
C          4.01298        1.81070       -0.50915
Ta         6.15959        1.56013       -0.72679
C          7.37716       -0.32611       -0.31712
C          8.60294       -0.77370       -1.17575
C          9.82869        0.21033       -1.20840
C         10.61172        0.52976        0.11663
F         10.99010       -0.60094        0.74810
F         11.74182        1.21070       -0.21740
F          9.91289        1.29223        0.95997
F         10.75579       -0.32713       -2.06370
F          9.42883        1.40478       -1.73254
F          9.09213       -1.99851       -0.76698
F          8.24606       -0.93114       -2.48636
F          7.82040       -0.58673        0.98635
F          6.41166       -1.33928       -0.56156
C          6.69975        3.65445       -1.04826
C          7.47273        4.03176       -2.17001
C          7.83039        5.36113       -2.40771
C          7.40816        6.39825       -1.55262
C          6.59462        6.03751       -0.45841
C          6.25813        4.70631       -0.21506
Si         8.14651        8.10892       -1.71486
C          9.97557        7.93301       -1.19432
C         10.11202        7.20006        0.14599
C         11.52415        6.90535        0.64501
C         12.17028        5.51484        0.27659
C         12.45710        5.10799       -1.22124
C         13.45575        5.92766       -2.13197
C         14.97562        6.11602       -1.73570
C         15.87099        4.84459       -1.49333
F         15.76715        3.97436       -2.51311
F         17.15821        5.25159       -1.41035
F         15.55554        4.22375       -0.34902
F         15.53639        6.78340       -2.78674
F         15.06755        6.90445       -0.63877
F         13.44060        5.30125       -3.34182
F         12.96512        7.18307       -2.30919
F         12.92794        3.83186       -1.19176
F         11.27206        5.10312       -1.88915
F         13.35277        5.40877        0.95182
F         11.33231        4.54975        0.74324
F         12.41782        7.89248        0.29775
F         11.50552        6.88105        2.02812
C          8.11013        8.75995       -3.48858
C          7.28679        9.35249       -0.57828
H          1.07990        0.19127       -0.11653
H          1.48056        1.34973       -1.19579
H          3.35347       -0.23548       -0.71330
H          3.28456        0.40714        0.93182
H          3.81221        2.69369        0.12672
H          3.79795        2.13760       -1.56008
H          6.39986        0.71276       -2.29958
H          5.83610        0.86157        0.85221
H          7.41081        1.97980        0.44375
H          7.82733        3.26941       -2.87098
H          8.46507        5.58799       -3.27128
H          6.23510        6.80722        0.23126
H          5.65429        4.48044        0.66961
H         10.45975        8.92042       -1.14945
H         10.46858        7.37737       -2.00292
H          9.55674        6.25028        0.13389
H          9.66293        7.80179        0.95115
H          8.57330        8.04543       -4.18328
H          8.65443        9.71226       -3.57074
H          7.07558        8.92633       -3.81962
H          7.35287        9.06089        0.47912
H          6.22145        9.44584       -0.83195
H          7.74895       10.34509       -0.68211
