33

C          0.92589       -0.25220        0.08512
C          2.45531       -0.28760        0.13001
C          3.08785       -0.90245       -1.12251
C          4.61768       -0.93475       -1.07195
C          5.22114       -1.57580       -2.32724
C          6.75539       -1.77063       -2.34389
S          7.47804       -0.11666       -2.78712
O          7.36976        0.04214       -4.24472
O          6.98653        0.97034       -1.95217
C          9.40196       -0.11162       -2.51030
F          9.97171       -1.32753       -2.60254
F          9.90630        0.64573       -3.52741
F          9.75861        0.47891       -1.37092
C          7.29030       -2.26238       -0.93082
O          6.76283       -3.33461       -0.55315
O          8.15647       -1.53341       -0.39469
C          7.17224       -2.81847       -3.42478
N          6.57322       -2.76859       -4.76006
H          0.50004        0.19202        0.99721
H          0.50880       -1.26591       -0.01789
H          0.56741        0.33826       -0.77225
H          2.78693       -0.85594        1.01479
H          2.84548        0.73500        0.26490
H          2.75455       -0.33423       -2.01061
H          2.69996       -1.92925       -1.25515
H          4.94481       -1.51424       -0.19540
H          5.00701        0.08526       -0.94815
H          4.89639       -1.02615       -3.22800
H          4.81740       -2.59918       -2.41883
H          6.91802       -3.77875       -2.95173
H          8.26481       -2.80562       -3.53884
H          6.73157       -1.83897       -5.15538
H          5.56155       -2.88659       -4.69229
