50

I          5.63998        2.11335        0.57433
Ta         4.30412       -0.11114       -0.22372
S          2.47722       -1.11910        1.07986
O          2.53538       -2.27811        1.98058
O          2.11756        0.20420        1.66472
C          0.81111       -1.54147        0.11881
C          0.85852       -2.62982       -1.00169
C          1.36391       -4.06303       -0.60673
C          1.08699       -5.17322       -1.69026
F          1.53300       -4.80739       -2.90765
F          1.73553       -6.30316       -1.32665
F         -0.22545       -5.46594       -1.78371
F          2.70461       -4.02776       -0.42205
F          0.75900       -4.48520        0.53329
F         -0.41261       -2.77344       -1.51317
F          1.65620       -2.17735       -2.00933
F         -0.10609       -1.92244        1.05283
F          0.33125       -0.41709       -0.48651
C          5.51592       -0.57868       -1.97390
C          6.69258       -1.35590       -2.04321
C          7.40433       -1.50783       -3.23196
C          6.96090       -0.91722       -4.43630
C          5.78202       -0.15194       -4.38291
C          5.08710        0.02199       -3.17934
Si         7.90803       -1.19780       -6.03362
C          7.76513       -3.04474       -6.49751
C          8.54903       -3.45257       -7.74977
C          8.39304       -4.90951       -8.13204
F          7.10062       -5.24512       -8.40030
F          9.11460       -5.20970       -9.25700
F          8.82656       -5.75621       -7.15661
C          7.19656       -0.15846       -7.44496
C          9.73758       -0.76355       -5.80715
H          4.57790       -0.65188        1.41947
H          2.75190        0.19591       -1.02517
H          4.76950       -1.79224       -0.09520
H          7.05132       -1.85837       -1.14119
H          8.31723       -2.11326       -3.22565
H          5.39557        0.32270       -5.28955
H          4.18003        0.63610       -3.19133
H          6.69564       -3.27114       -6.63028
H          8.09873       -3.64090       -5.63367
H          9.62864       -3.28408       -7.62130
H          8.23438       -2.87286       -8.63077
H          6.14677       -0.41448       -7.64733
H          7.76381       -0.31076       -8.37506
H          7.23983        0.91337       -7.20460
H         10.19089       -1.35076       -4.99574
H          9.84671        0.29846       -5.54578
H         10.31983       -0.94541       -6.72274
