34

C          2.70806       -1.08038        0.57010
C          2.30908        0.28696       -0.00123
In         3.25821        2.08931        0.99191
C          2.01678        2.30667        2.91101
C          1.09573        1.27717        3.20008
C          0.28704        1.26663        4.34155
C          0.36155        2.31751        5.26176
C          1.23393        3.37393        5.00602
C          2.04584        3.36625        3.84883
C          2.96899        4.52865        3.64092
O          4.11185        4.48215        3.24653
O          2.42452        5.76341        3.96423
C          5.39884        1.62110        1.56762
C          5.69228        1.35175        3.04167
S          5.02671       -0.27378        3.57237
C          5.49868       -0.23512        5.32398
H          2.22991       -1.93586        0.05130
H          2.45242       -1.17395        1.63785
H          3.79633       -1.24215        0.51317
H          1.21279        0.41171        0.04136
H          2.57116        0.33581       -1.07170
H          3.11815        3.56041       -0.00480
H          1.01315        0.43695        2.50480
H         -0.39621        0.43190        4.52382
H         -0.24357        2.31097        6.17108
H          1.32061        4.18476        5.73745
H          1.48212        5.61292        4.15902
H          5.96139        2.52229        1.27720
H          5.78403        0.79446        0.94701
H          5.23288        2.12525        3.67605
H          6.77631        1.32392        3.26862
H          5.16886       -1.18005        5.77632
H          5.00713        0.59702        5.84894
H          6.58899       -0.14686        5.44692
