60

C          4.73640        2.32624       -4.59619
C          4.80382        1.68958       -3.20548
C          5.53329        2.55404       -2.17200
C          5.60219        1.92770       -0.77567
C          6.32384        2.79143        0.27091
C          6.39617        2.16416        1.66993
Al         7.31695        3.17752        3.15123
C          6.36979        5.04125        3.46527
C          4.87505        5.05340        3.86993
C          4.17221        6.41250        4.20526
F          4.23778        7.28141        3.17486
F          2.85108        6.20207        4.47275
F          4.70979        7.00276        5.29235
F          4.14040        4.49519        2.85247
F          4.71348        4.27029        4.98422
F          7.03766        5.77019        4.46226
F          6.45311        5.84942        2.31100
C          9.23213        3.71067        2.74746
C          9.63434        4.55063        1.68489
C         10.97308        4.88008        1.45613
C         12.00088        4.38374        2.28513
C         11.61722        3.54363        3.34832
C         10.27310        3.22281        3.56554
Si        13.78334        4.86709        1.99108
C         13.97849        6.73955        2.32364
C         15.40352        7.27499        2.14861
C         15.54367        8.76256        2.39198
F         15.17987        9.12574        3.65374
F         16.84051        9.17670        2.22855
F         14.79064        9.50764        1.53476
C         14.94995        3.92565        3.14862
C         14.29212        4.52855        0.19640
H          4.20340        1.68615       -5.31493
H          5.74516        2.50987       -4.99663
H          4.21670        3.29585       -4.56283
H          5.30425        0.70813       -3.27344
H          3.78162        1.48185       -2.84518
H          5.03384        3.53735       -2.10507
H          6.55782        2.76127       -2.53064
H          6.10549        0.94563       -0.83872
H          4.57768        1.71825       -0.41848
H          5.81739        3.77141        0.32410
H          7.34399        3.00552       -0.09719
H          6.90609        1.18313        1.59936
H          5.37168        1.92885        2.01590
H          7.29771        2.35686        4.55964
H          8.87824        4.97488        1.01737
H         11.21916        5.54049        0.61663
H         12.37738        3.13444        4.02169
H         10.02041        2.57315        4.41031
H         13.62301        6.93564        3.34725
H         13.28810        7.27433        1.65239
H         15.78020        7.09687        1.12981
H         16.10469        6.78582        2.84164
H         14.73697        4.14895        4.20392
H         16.00158        4.18406        2.95540
H         14.84557        2.84010        3.01063
H         13.63284        5.05793       -0.50635
H         14.21272        3.45467       -0.02414
H         15.32736        4.83862       -0.01041
