63

C          0.58114       -1.06522        0.19530
C          2.07859       -0.75387        0.12043
C          2.85259       -1.65450       -0.84918
C          4.32643       -1.25362       -1.02027
C          5.15558       -2.14457       -1.95267
Ga         6.91981       -1.25244       -2.45146
C          8.07723       -0.90002       -0.80300
C          8.18680       -1.78020        0.29223
C          8.97501       -1.49344        1.41267
C          9.71214       -0.29466        1.49836
C          9.61450        0.59496        0.40750
C          8.81801        0.29600       -0.70110
Si        10.72795        0.15024        3.00283
C         11.27040       -1.44892        3.89636
C         12.12383       -1.21589        5.14707
C         12.52575       -2.48645        5.86521
F         13.25088       -3.32976        5.07794
F         13.30115       -2.21922        6.96373
F         11.45192       -3.19582        6.31597
C         12.27622        1.12652        2.50953
C          9.72804        1.20731        4.22123
C          8.04205       -2.21001       -3.87637
C          8.89872       -3.38690       -3.41226
C          9.83267       -3.90028       -4.52836
C         10.73859       -5.04232       -4.12448
C         11.68919       -5.55239       -5.25038
F         10.98006       -5.99792       -6.31676
F         12.50444       -4.55931       -5.68075
F         12.47149       -6.57058       -4.82378
F         11.55909       -4.69349       -3.07280
F         10.01557       -6.14545       -3.71629
H          0.06272       -0.42336        0.92383
H          0.40555       -2.11216        0.48782
H          0.09866       -0.91495       -0.78304
H          2.52463       -0.84163        1.12611
H          2.21894        0.29939       -0.17785
H          2.36108       -1.63259       -1.83918
H          2.79033       -2.70306       -0.50496
H          4.80395       -1.22077       -0.02394
H          4.35464       -0.21144       -1.38925
H          4.60605       -2.30503       -2.89827
H          5.28962       -3.14411       -1.50196
H          6.56756        0.21399       -3.05163
H          7.63251       -2.72521        0.27955
H          9.01359       -2.22019        2.23126
H         10.16819        1.54057        0.42303
H          8.75985        1.02388       -1.51767
H         11.82011       -2.07207        3.17410
H         10.36530       -2.01503        4.16718
H         11.59265       -0.60139        5.88972
H         13.06038       -0.69139        4.90468
H         12.91384        0.53959        1.83328
H         12.87561        1.41345        3.38645
H         12.00235        2.05242        1.98386
H          8.83242        0.66877        4.56267
H          9.38727        2.12819        3.72630
H         10.31267        1.50018        5.10677
H          8.69579       -1.42722       -4.30132
H          7.37370       -2.52736       -4.69707
H          8.26088       -4.21709       -3.06881
H          9.51237       -3.09008       -2.54699
H         10.47446       -3.07658       -4.87773
H          9.23920       -4.23469       -5.39350
