37

C          1.46491       -2.24810       -2.87920
O          2.85728       -2.16002       -2.66707
C          3.18723       -1.19661       -1.66960
C          4.69115       -1.02196       -1.57414
O          5.14914       -0.23876       -2.65278
C          6.57366        0.05610       -2.56549
C          7.01334        0.86327       -3.75045
Sb         9.14025        1.72939       -3.63567
C          9.96180       -0.52707       -3.56199
F          9.26234       -1.40954       -4.38364
F         11.28025       -0.65541       -3.97309
F          9.92843       -1.12656       -2.31138
C          9.28913        1.52092       -5.91228
C          9.59316        2.83642       -6.60541
C          9.64282        2.86609       -8.13656
O         10.00319        3.85689       -8.77642
N          9.22730        1.72145       -8.76020
H          1.29851       -3.01083       -3.65161
H          1.04214       -1.28598       -3.22947
H          0.92341       -2.54717       -1.95837
H          2.78764       -1.52673       -0.68747
H          2.72538       -0.22064       -1.91740
H          5.17920       -2.01918       -1.55983
H          4.92162       -0.53099       -0.60335
H          7.12644       -0.90010       -2.50809
H          6.75376        0.60084       -1.61569
H          6.38416        1.75771       -3.87342
H          6.97142        0.26308       -4.66906
H          9.06446        1.72173       -1.85199
H          8.53407        3.40607       -3.77100
H         10.84968        2.25650       -3.60590
H          8.32046        1.09799       -6.21754
H         10.07880        0.77203       -6.07224
H         10.56276        3.24168       -6.27104
H          8.85348        3.60712       -6.32371
H          9.02947        0.89190       -8.21155
H          9.28967        1.66825       -9.76909
