39

N          0.34524       -0.64777       -0.24370
C          1.74858       -0.18650       -0.31406
C          2.63105       -1.19817       -1.04073
C          4.09605       -0.75235       -1.18821
C          5.03218       -1.78131       -1.83438
Al         6.93075       -1.18036       -2.25055
C          8.01186       -0.69459       -0.58377
C          7.40587        0.38766        0.31606
C          8.36762        0.86515        1.40683
S          7.67103        2.07401        2.62080
C          7.86364       -2.74113       -3.18818
C          9.39570       -2.71193       -3.20528
C          9.99823       -3.91927       -3.92867
S         11.83735       -4.09069       -3.84091
H         -0.19822       -0.03084        0.36326
H          0.32037       -1.56934        0.19887
H          2.18928        0.01886        0.68273
H          1.75710        0.77016       -0.86294
H          2.20110       -1.40311       -2.03582
H          2.60443       -2.15891       -0.49189
H          4.47641       -0.48031       -0.18708
H          4.11694        0.18738       -1.77085
H          4.59084       -2.11778       -2.79387
H          5.06989       -2.68956       -1.20052
H          6.89042        0.16197       -3.22055
H          8.99843       -0.35143       -0.95294
H          8.21750       -1.60142        0.01725
H          6.48354        0.02395        0.79741
H          7.10229        1.26214       -0.28888
H          9.27684        1.29925        0.96651
H          8.68316        0.02221        2.04056
H          7.26098        2.98614        1.70800
H          7.47843       -2.80056       -4.22411
H          7.52689       -3.67155       -2.69023
H          9.79698       -2.68212       -2.17881
H          9.75839       -1.78955       -3.69549
H          9.69626       -3.93650       -4.98599
H          9.63768       -4.85375       -3.47191
H         12.13051       -2.85359       -4.30755
