41

F          0.91846       -0.61630        2.82141
C          2.20454       -0.91090        2.54960
C          3.09629        0.32783        2.80645
S          2.72715        1.95256        1.73096
O          3.37304        2.98271        2.56189
O          3.32623        1.60862        0.43533
Ga         0.44695        2.76060        1.38875
S         -0.84880        1.22099       -0.01912
O         -0.52586       -0.20718        0.06093
O         -2.24605        1.64220        0.16162
C         -0.62306        1.66540       -1.92001
C          0.73464        1.41852       -2.65033
C          1.28225       -0.05554       -2.72277
C          2.37713       -0.27606       -3.83557
F          3.33957        0.66242       -3.77482
F          2.94915       -1.48536       -3.64671
F          1.83943       -0.26523       -5.07268
F          1.84631       -0.38632       -1.54476
F          0.26969       -0.92236       -3.00008
F          0.58355        1.85916       -3.94719
F          1.67452        2.19358       -2.05342
F         -1.60966        0.99944       -2.57178
F         -0.86666        3.00536       -2.03249
C         -0.81270        2.67217        3.04225
C         -0.29340        2.96893        4.48314
C          0.17982        4.44124        4.73420
C          1.05016        4.65193        6.02675
F          0.42239        4.15602        7.11500
F          2.25440        4.07698        5.91953
F          1.23034        5.98038        6.21759
F          0.92208        4.86785        3.67576
F         -0.90772        5.24983        4.85432
F         -1.27815        2.70056        5.39557
F          0.74827        2.12653        4.74146
F         -1.86206        3.55230        2.82081
F         -1.36336        1.41042        3.13583
F          3.01316        0.64493        4.12277
F          4.38517        0.00317        2.52431
F          2.57627       -1.94230        3.35973
F          2.30696       -1.32847        1.27855
H          0.73505        4.08875        0.63543
