30

Cl         1.03032       -0.38604       -0.34012
Al         2.92224        0.51911        0.38657
C          4.06222        0.97171       -1.31515
C          3.82856        2.31474       -2.07530
C          4.49392        3.58146       -1.42605
C          3.88182        4.95891       -1.87426
F          3.82875        5.06256       -3.21835
F          2.64682        5.14555       -1.37772
F          4.66841        5.96221       -1.41132
F          4.39331        3.53724       -0.07184
F          5.81403        3.62041       -1.76036
F          4.29162        2.26074       -3.36602
F          2.47370        2.53247       -2.14881
F          5.43736        0.94245       -1.02212
F          3.87363       -0.00856       -2.28714
C          3.88451       -0.81416        1.56236
C          4.19171       -0.22312        2.81061
C          4.87101       -0.89716        3.82917
C          5.29111       -2.21335        3.62462
C          5.02672       -2.82760        2.40355
C          4.32482       -2.15200        1.38758
C          4.12576       -2.97987        0.13916
O          4.87062       -3.90427       -0.14948
O          3.07263       -2.71695       -0.66014
H          2.59116        1.83929        1.24164
H          3.87830        0.81008        2.99052
H          5.07216       -0.39453        4.77862
H          5.82405       -2.75691        4.40782
H          5.35947       -3.84698        2.20307
H          2.48911       -1.99020       -0.32823
