40

N          1.01269        3.59322       -1.70788
C          2.46580        3.74991       -1.49130
C          3.23811        2.57254       -2.08120
C          4.76142        2.66442       -1.88713
C          5.51713        1.44701       -2.38906
Sb         7.75453        1.53101       -2.11072
C          7.83030       -0.73232       -2.36506
C          8.66448       -1.18864       -3.55281
C          8.91167       -2.70783       -3.64425
C          7.64961       -3.53320       -3.90346
N          7.97852       -4.95457       -3.98789
C          7.02123       -5.93328       -4.16439
N          5.73602       -5.81082       -4.17647
N          7.58631       -7.21352       -4.35222
F          7.88598        1.68419       -4.19365
H          0.50043        4.32924       -1.21831
H          0.70623        2.71091       -1.29139
H          2.73829        3.85345       -0.42123
H          2.77858        4.68287       -1.98869
H          3.00010        2.48640       -3.15424
H          2.87405        1.63927       -1.61138
H          4.97389        2.81480       -0.81170
H          5.13768        3.57078       -2.39471
H          5.38158        1.29682       -3.47031
H          5.19145        0.53549       -1.86183
H          7.63524        1.41849       -0.32700
H          9.54166        1.52879       -2.09995
H          7.70668        3.31431       -2.08262
H          6.78552       -1.07306       -2.43283
H          8.25225       -1.09598       -1.41198
H          9.64874       -0.68972       -3.51215
H          8.20098       -0.83042       -4.48632
H          9.37773       -3.06631       -2.71013
H          9.63144       -2.91345       -4.46105
H          7.15852       -3.18047       -4.83156
H          6.93207       -3.38919       -3.08106
H          8.88007       -5.15854       -4.41080
H          5.46340       -4.82459       -4.15965
H          8.32535       -7.42626       -3.68488
H          6.85035       -7.91526       -4.31964
