35

C          4.45595       -4.21087       -1.69590
C          4.53581       -2.68481       -1.79881
C          4.02068       -1.96517       -0.53700
Nb         5.62904       -1.28321        0.85369
C          6.43829        0.25183       -0.49184
C          5.41637        1.20899       -1.11268
C          6.00842        2.49043       -1.73371
C          6.93653        2.21248       -2.91418
N          7.47153        3.46126       -3.45666
C          8.34674        3.55216       -4.52267
N          8.97525        4.61456       -4.92260
N          8.47373        2.38075       -5.26978
Br         8.04738       -1.84876        1.77804
H          4.86533       -4.70885       -2.58928
H          3.41014       -4.53765       -1.57585
H          5.01836       -4.55896       -0.81719
H          3.97154       -2.36314       -2.69720
H          5.58800       -2.40810       -2.00687
H          3.18052       -2.52252       -0.09332
H          3.58905       -0.97496       -0.80042
H          4.02878       -0.83609        1.48775
H          5.52339       -0.78718        2.54476
H          5.84742       -3.00705        0.57088
H          7.07489       -0.24192       -1.24602
H          7.11727        0.79510        0.19483
H          4.68077        1.52308       -0.35197
H          4.83070        0.68152       -1.88462
H          6.57363        3.03667       -0.95644
H          5.19613        3.15689       -2.07261
H          6.37160        1.69255       -3.70609
H          7.74554        1.53550       -2.58054
H          7.53535        4.22831       -2.79666
H          8.71359        5.42503       -4.35360
H          8.47042        1.51083       -4.74570
H          9.24395        2.45336       -5.92705
