18

Br         0.99695       -0.55096       -0.05614
Al         3.30963       -0.20085        0.42579
C          3.57508        1.84774        0.64768
F          2.91131        2.44277        1.71010
F          4.92343        2.16709        0.87158
F          3.23074        2.62760       -0.45120
C          4.39560       -0.82584       -1.14653
C          5.91592       -0.85626       -0.93219
C          6.65969       -1.39819       -2.15450
S          8.48201       -1.60116       -1.95691
H          3.69186       -0.90366        1.83256
H          4.14965       -0.19682       -2.02099
H          4.03904       -1.84193       -1.39787
H          6.17484       -1.47487       -0.05707
H          6.29351        0.15662       -0.70844
H          6.47036       -0.77246       -3.03830
H          6.31271       -2.41550       -2.39316
H          8.73755       -0.32480       -1.58330
