33

C          2.55618       -0.14878       -0.55768
C          1.06393       -0.08868       -0.33703
C          0.17418        0.00732       -1.41712
C         -1.20563        0.09328       -1.21054
C         -1.76803        0.08441        0.08197
C         -0.85826       -0.02086        1.15578
C          0.52279       -0.10506        0.95608
Al        -3.69434        0.20241        0.55922
S         -4.78550       -1.96011        0.17181
O         -4.15560       -2.91573        1.10344
O         -6.25728       -1.89630        0.13954
C         -4.33385       -2.82522       -1.53940
C         -4.82869       -2.13858       -2.83375
F         -6.16951       -2.10281       -2.90135
F         -4.35388       -0.87359       -2.90038
F         -4.37981       -2.79921       -3.94182
F         -2.97522       -2.92814       -1.62280
F         -4.85930       -4.08135       -1.50009
C         -4.87005        1.64850       -0.39904
C         -4.16228        2.75668       -1.20897
F         -3.54340        2.23786       -2.30035
F         -5.00640        3.72707       -1.65461
F         -3.21644        3.36964       -0.44848
F         -5.84020        1.13418       -1.25444
F         -5.57453        2.34069        0.59700
H          2.79923       -0.57411       -1.54163
H          3.05127       -0.75884        0.21149
H          3.00743        0.85634       -0.51563
H          0.57004        0.01005       -2.43730
H         -1.85368        0.16376       -2.08715
H         -1.23970       -0.04505        2.18120
H          1.19228       -0.18972        1.81783
H         -3.99499        0.26171        2.13255
