21

F          4.24813       -0.06401        1.52381
In         2.89604       -0.50393        0.03320
C          3.92572        0.38238       -1.74403
C          3.01042        0.94515       -2.83213
C          3.79487        1.32835       -4.10653
C          2.94815        1.90413       -5.22309
C          3.69676        2.09652       -6.57841
F          4.77918        2.89772       -6.42580
F          4.12725        0.90616       -7.06275
F          2.89928        2.65669       -7.51658
F          1.86532        1.10195       -5.51334
F          2.44628        3.14448       -4.88687
S          0.78922        0.81069        0.53564
H          2.49089       -2.21650        0.12298
H          4.57170       -0.41011       -2.15872
H          4.59527        1.16472       -1.35184
H          2.46711        1.82513       -2.45478
H          2.23572        0.21468       -3.11104
H          4.30885        0.43778       -4.50034
H          4.57297        2.07052       -3.87046
H          1.41944        2.00908        0.50075
