17

O          1.27615        0.29664        0.00200
C          2.46207       -0.04240       -0.05731
O          3.29445       -0.41807        0.81915
C          3.19895       -0.03149       -1.49859
S          2.51404       -1.49389       -2.58813
O          2.63543       -1.20063       -4.01133
O          3.09417       -2.70651       -2.03312
C          0.62074       -1.75388       -2.33427
F         -0.10234       -0.65468       -2.57930
F          0.27068       -2.69919       -3.24904
F          0.33164       -2.23051       -1.11881
C          3.04220        1.29479       -2.26169
F          1.79522        1.49142       -2.74479
F          3.32524        2.33691       -1.42782
F          3.90560        1.40097       -3.30753
O          4.51541       -0.32455       -1.29785
H          4.44210       -0.54728       -0.29074
