36

C          0.94947        0.07022        0.12600
C          2.48009        0.01898        0.09247
C          3.03728       -1.11929       -0.76954
C          4.56695       -1.18542       -0.81588
C          5.11147       -2.33991       -1.66045
C          6.64262       -2.40065       -1.74312
N          7.09218       -3.52706       -2.46079
C          8.48936       -3.55930       -2.50078
C          9.01648       -4.81066       -3.22442
C         10.54960       -4.83519       -3.22625
C         11.23815       -5.89587       -4.04720
C         10.97879       -7.38602       -3.65331
F          9.71497       -7.76739       -3.92312
F         11.80894       -8.22096       -4.33169
F         11.20483       -7.57687       -2.32979
F         10.92671       -5.80002       -5.38919
F         12.61804       -5.73648       -3.96288
H          0.57718        0.89819        0.74801
H          0.52999       -0.86440        0.52987
H          0.53476        0.20116       -0.88567
H          2.86778       -0.08250        1.12101
H          2.87214        0.98105       -0.28093
H          2.64626       -1.01919       -1.79866
H          2.64385       -2.08210       -0.39508
H          4.95823       -1.27140        0.21433
H          4.95963       -0.22834       -1.20629
H          4.71345       -2.27770       -2.68882
H          4.75781       -3.30429       -1.25477
H          7.04338       -2.35434       -0.67405
H          6.99406       -1.40450       -2.17903
H          8.98778       -3.54084       -1.46780
H          8.97523       -2.65587       -3.01617
H          8.62565       -4.81333       -4.25349
H          8.60252       -5.69599       -2.71917
H         10.93176       -4.91973       -2.19702
H         10.92834       -3.87826       -3.62514
