15

C          1.22316        0.03822       -0.01231
N          2.63181       -0.08104        0.09766
C          2.96270       -1.11355        1.00479
C          4.48635       -1.20171        1.07954
C          5.11410       -2.22980        1.97850
O          4.59125       -3.05356        2.69989
O          6.51919       -2.19906        1.94891
H          0.94532        0.84194       -0.72102
H          0.68577        0.27869        0.96103
H          0.69112       -0.89902       -0.37650
H          2.56700       -2.13937        0.72342
H          2.56879       -0.96663        2.05899
H          4.85573       -0.19473        1.36116
H          4.85329       -1.34885        0.04343
H          6.76741       -1.49143        1.32889
