26

I          5.03942        2.34691        0.58050
Ga         3.56875        0.10410        0.16122
C          4.68608       -1.02375       -1.09999
C          5.60398       -1.97752       -0.62286
C          6.34004       -2.79013       -1.49433
C          6.17696       -2.67666       -2.88047
C          5.26920       -1.73792       -3.37102
C          4.53386       -0.92305       -2.49308
C          5.03966       -1.61698       -4.85227
F          5.98831       -2.26409       -5.59589
F          3.83458       -2.15029       -5.23358
F          5.02995       -0.32365       -5.27853
C          7.31774       -3.80877       -0.98241
F          7.39270       -3.85260        0.37297
F          7.00499       -5.08193       -1.39469
F          8.59290       -3.58343       -1.43574
C          1.91822        0.82249       -0.74924
N          2.28165        1.66156       -1.91064
H          3.42448       -0.59476        1.57829
H          5.75005       -2.09195        0.45342
H          6.74841       -3.30684       -3.56135
H          3.83108       -0.18764       -2.89917
H          1.29339        1.34277        0.00263
H          1.33502       -0.04592       -1.10445
H          3.01186        2.32229       -1.62678
H          1.48902        2.22806       -2.22250
