38

N          4.38318       -2.37307        0.94113
C          3.31524       -1.40083        1.24377
C          3.80518       -0.30828        2.20166
C          4.88622        0.62959        1.63912
Al         5.55013        1.96675        2.95842
S          3.68586        3.48011        3.56704
O          2.41828        2.76442        3.82771
O          4.14559        4.43902        4.59198
C          3.18368        4.77407        2.15052
C          2.59387        4.29338        0.78976
C          1.24506        3.48219        0.80958
C          0.49200        3.45415       -0.57475
F          1.31576        3.09239       -1.57843
F         -0.51007        2.54658       -0.50636
F         -0.05794        4.64646       -0.87460
F          1.49791        2.19176        1.13247
F          0.37583        4.00974        1.70857
F          2.38017        5.40435        0.00075
F          3.52919        3.52456        0.16694
F          2.30812        5.65177        2.71419
F          4.32128        5.46428        1.82635
C          7.07067        3.20375        2.45288
O          7.11277        3.47191        0.99408
C          8.13672        4.18998        0.55314
F          9.36634        3.60062        0.76385
F          8.01124        4.36102       -0.78707
F          8.23829        5.43935        1.11129
H          4.02903       -3.11047        0.33053
H          4.67391       -2.83230        1.80725
H          2.40944       -1.87546        1.67682
H          3.00997       -0.93673        0.29075
H          4.17287       -0.79974        3.12281
H          2.92833        0.27646        2.52199
H          4.50851        1.12885        0.73097
H          5.75262        0.03296        1.30144
H          5.76556        1.44824        4.47548
H          8.03337        2.74392        2.73441
H          7.00191        4.17123        2.97436
