47

Cl         5.08254        2.51509        1.32625
Ta         4.49779        0.50853        0.19589
C          5.41634       -1.19887       -0.87906
C          6.59978       -1.86086       -0.47597
C          7.15084       -2.92247       -1.19162
C          6.52356       -3.39168       -2.35743
C          5.34651       -2.75689       -2.79389
C          4.82952       -1.68395       -2.07592
C          7.09825       -4.54713       -3.10366
C          6.84886       -5.98698       -2.50911
C          5.37706       -6.52146       -2.32768
C          4.43532       -6.79544       -3.57423
C          4.93630       -7.77955       -4.69666
C          3.79535       -8.30974       -5.64669
F          3.06366       -7.29750       -6.14754
F          4.36989       -8.96973       -6.67618
F          2.97717       -9.16654       -5.01025
F          5.83975       -7.14860       -5.48287
F          5.51648       -8.87592       -4.14013
F          3.29554       -7.33802       -3.04514
F          4.10451       -5.61998       -4.15732
F          5.48327       -7.71165       -1.66198
F          4.68903       -5.66283       -1.53781
F          7.51245       -6.91672       -3.26768
F          7.39388       -6.02011       -1.25907
F          6.65779       -4.59748       -4.41209
F          8.48428       -4.47200       -3.16076
C          2.35666        0.81041       -0.00754
C          1.37211        0.69896        1.15519
C         -0.10302        0.91152        0.77686
C         -1.05539        0.82436        1.97329
H          3.76883       -1.02636        0.72054
H          5.13563        1.04991       -1.39883
H          5.42752       -0.23518        1.51487
H          7.09885       -1.53844        0.44081
H          8.07262       -3.39301       -0.84457
H          4.85569       -3.09061       -3.70919
H          3.93762       -1.19182       -2.47925
H          2.09130        0.08683       -0.80754
H          2.29287        1.82204       -0.46889
H          1.64277        1.43450        1.93402
H          1.48350       -0.29305        1.62520
H         -0.38906        0.16265        0.01853
H         -0.21235        1.89493        0.28849
H         -0.97682       -0.15469        2.47113
H         -2.10552        0.96475        1.67573
H         -0.81562        1.59169        2.72557
