28

N          1.18654        0.17295       -0.17280
C          2.59328       -0.10775        0.11770
P          2.91153       -1.62086        1.29616
C          2.76356       -3.16299       -0.28423
C          2.86455       -2.97205       -1.80582
F          4.04395       -2.38761       -2.15101
F          2.78483       -4.13048       -2.54043
F          1.86186       -2.17010       -2.26600
F          3.73752       -4.16154       -0.01467
F          1.54723       -3.81262       -0.08898
C          4.84442       -1.44156        1.11735
C          5.56797       -1.92350        2.38613
C          6.71430       -2.88483        2.12953
O          7.88793       -2.65666        2.44072
N          6.34482       -4.06899        1.54110
H          0.65366        0.03208        0.69441
H          0.83599       -0.55586       -0.79990
H          3.03224        0.75835        0.64401
H          3.13923       -0.22843       -0.82932
H          2.92609       -0.77239        2.50705
H          1.44518       -1.81984        1.38506
H          3.11929       -2.83355        2.12140
H          5.06475       -0.38099        0.92962
H          5.17099       -1.99619        0.22627
H          4.82306       -2.45059        3.02373
H          5.97396       -1.08880        2.96882
H          5.42601       -4.16246        1.11429
H          7.09256       -4.65581        1.19011
