38

C          2.97701        2.28662        0.08876
C          1.56638        1.75850       -0.20299
C          1.47593        1.09807       -1.58445
In         2.76703       -0.65431       -1.96326
S          0.94821       -2.57064       -1.25386
O          1.05783       -2.88201        0.18926
O         -0.39729       -2.22545       -1.76041
C          1.16762       -4.35485       -2.08865
C          2.51790       -5.11751       -1.93565
C          2.99885       -5.49251       -0.48557
C          4.09689       -6.62337       -0.44650
F          5.10819       -6.36447       -1.29845
F          4.60858       -6.68952        0.80486
F          3.58297       -7.83357       -0.74136
F          3.54552       -4.40350        0.10303
F          1.96203       -5.94146        0.26805
F          2.42755       -6.29747       -2.64575
F          3.49501       -4.36530       -2.51076
F          0.15899       -5.14297       -1.62342
F          0.98953       -4.19385       -3.43398
C          3.16437       -0.87855       -4.22626
C          2.04390       -0.52549       -5.22319
F          1.63959        0.76221       -5.04654
F          2.42168       -0.64341       -6.53030
F          0.97095       -1.32589       -5.04222
F          4.22271       -0.00837       -4.54023
F          3.60554       -2.14446       -4.58758
C          1.08373        0.82415        0.91243
H          3.31834        2.96912       -0.70429
H          3.69906        1.45619        0.14774
H          3.01327        2.83112        1.04504
H          0.88795        2.63632       -0.20744
H          1.73018        1.81768       -2.37835
H          0.45259        0.74725       -1.78482
H          4.20922       -1.20398       -1.14650
H          1.71455       -0.07668        0.98160
H          0.05656        0.47986        0.72465
H          1.10445        1.32647        1.89231
