62

N          3.88698       -3.01059       -1.84219
C          4.13740       -1.81945       -0.99082
C          4.95221       -0.76558       -1.73093
B          5.14457        0.68214       -0.99577
S          6.45950        0.57950        0.45888
O          7.57469       -0.35032        0.14809
O          6.84046        1.92672        0.93987
C          5.61447       -0.16543        1.90046
C          5.69331        1.81391       -2.00764
C          5.00359        3.02850       -2.18855
C          5.41775        3.99366       -3.11039
C          6.56417        3.79791       -3.90568
C          7.27419        2.59164       -3.71868
C          6.84912        1.63185       -2.79946
Si         7.13660        5.05296       -5.16700
C          8.93851        5.57963       -4.81127
C          9.14479        6.14591       -3.39953
C         10.55315        6.66935       -3.18132
C         10.85186        7.35163       -1.79852
C         10.63764        6.55566       -0.45362
C         11.37387        5.18427       -0.14888
C         12.94308        5.17139       -0.11154
C         13.57342        3.75134        0.30669
F         12.64119        2.84031        0.61448
F         14.31714        3.26967       -0.70771
F         14.37937        3.91325        1.37603
F         13.43405        5.49481       -1.33061
F         13.36603        6.10280        0.78206
F         10.94407        4.82961        1.09274
F         10.95579        4.25998       -1.04719
F         10.96208        7.42078        0.54961
F          9.31105        6.27420       -0.35274
F         12.13083        7.82298       -1.80312
F         10.01721        8.43350       -1.69621
F         11.49259        5.68323       -3.36677
F         10.84485        7.65571       -4.10717
C          7.12530        4.33113       -6.91780
C          6.05027        6.60467       -5.13564
H          3.52022       -3.77628       -1.27120
H          4.78757       -3.33847       -2.20084
H          4.64819       -2.09029       -0.04754
H          3.15606       -1.39933       -0.71216
H          4.44839       -0.57673       -2.69637
H          5.94203       -1.19273       -1.98089
H          4.13657        1.06686       -0.41035
H          5.39393       -1.22045        1.70262
H          4.69628        0.39803        2.10188
H          6.32458       -0.06454        2.73103
H          4.11210        3.21457       -1.58354
H          4.83579        4.91521       -3.21087
H          8.17898        2.39424       -4.30509
H          7.43390        0.71624       -2.67944
H          9.23562        6.32224       -5.56898
H          9.59069        4.70413       -4.95651
H          8.93467        5.37396       -2.64584
H          8.45934        6.98280       -3.19773
H          7.73458        3.41721       -6.96655
H          7.52072        5.04418       -7.65676
H          6.10234        4.06038       -7.21566
H          6.03077        7.07711       -4.14334
H          5.01221        6.36326       -5.40536
H          6.41908        7.34872       -5.85736
