21

N          3.02284       -1.23985        0.73249
C          2.49106        0.00386        0.14754
C          3.06866        1.23937        0.84273
C          4.59779        1.31647        0.82761
C          5.19203        2.40990        1.74418
C          4.87807        2.34397        3.22564
S          5.24746        0.99334        4.09672
O          6.46030        0.36716        3.57410
O          5.03128        1.09602        5.53126
F          4.08371       -0.28803        3.72495
I          3.26051        3.52398        3.96298
H          2.34287       -1.99495        0.65482
H          3.21092       -1.10320        1.73072
H          1.38534        0.06481        0.20614
H          2.74812        0.02421       -0.92932
H          2.72590        1.23555        1.88953
H          2.63705        2.14315        0.37887
H          4.95191        1.48873       -0.20641
H          5.01538        0.34824        1.13750
H          4.88098        3.40589        1.38825
H          6.29018        2.37331        1.63326
