58

O          1.16762        0.02316       -0.39768
C          2.35721        0.31077       -0.13857
O          3.03871        1.32298       -0.38667
C          3.15337       -0.85799        0.73434
C          2.63820       -0.64581        2.14033
C          1.31147       -1.02638        2.44613
C          0.77799       -0.80557        3.71199
C          1.53629       -0.19208        4.72045
C          2.83904        0.19654        4.42189
C          3.38690       -0.02416        3.14870
C          3.70318        0.84034        5.47186
F          3.04058        1.06821        6.64000
F          4.78986        0.06782        5.78759
F          4.20538        2.04317        5.06590
C         -0.63878       -1.20276        4.03123
F         -1.21127       -1.96543        3.06911
F         -0.71627       -1.91603        5.19979
F         -1.45005       -0.11408        4.20803
C          2.81282       -2.26974        0.25537
C          3.13321       -3.36611        1.07465
C          2.92168       -4.67906        0.64678
C          2.37842       -4.93520       -0.61593
C          2.05920       -3.85172       -1.43480
C          2.26528       -2.53223       -1.00773
C          1.43379       -4.10183       -2.78271
F          1.75453       -5.33345       -3.28298
F          0.06856       -4.05658       -2.73266
F          1.81663       -3.18893       -3.71393
C          3.28582       -5.84859        1.52094
F          3.71692       -5.47951        2.75422
F          2.23056       -6.69813        1.70825
F          4.28335       -6.60931        0.96912
C          4.68075       -0.64240        0.62275
C          5.25236       -0.87411       -0.78099
C          6.73504       -0.50280       -0.90798
C          7.68022       -1.43811       -0.15216
N          9.06611       -1.02965       -0.35076
C         10.11786       -1.73787        0.20628
N         10.08249       -2.86846        0.82658
N         11.35311       -1.08527        0.03877
H          0.70069       -1.46878        1.66085
H          1.11848       -0.02880        5.71223
H          4.40853        0.29855        2.95319
H          3.55364       -3.19099        2.06532
H          2.21172       -5.95722       -0.95406
H          1.97730       -1.69616       -1.64261
H          5.19790       -1.28284        1.35957
H          4.87233        0.40895        0.88423
H          4.67766       -0.25272       -1.48215
H          5.11618       -1.92375       -1.09060
H          6.87916        0.53145       -0.54656
H          7.02508       -0.50770       -1.97120
H          7.56206       -2.46589       -0.53399
H          7.42372       -1.46076        0.92350
H          9.20731       -0.02344       -0.39232
H          9.11944       -3.16784        0.99790
H         11.49546       -0.71254       -0.89762
H         12.11119       -1.70449        0.31487
