34

C          1.55254       -0.86285       -0.55596
Ta         3.63369       -0.23081       -0.36278
C          5.13642        0.89607       -1.66936
C          5.35386        0.56246       -3.18041
C          4.06395        0.67712       -4.05105
F          3.10954       -0.17954       -3.62036
F          3.55294        1.92201       -4.04584
F          4.34057        0.35439       -5.34514
F          6.28480        1.39835       -3.76993
F          5.82298       -0.70959       -3.35261
F          5.12212        2.29305       -1.66112
F          6.38737        0.55902       -1.07269
C          3.98105       -0.88809        1.69589
C          5.40483       -0.74405        2.26297
C          5.70664        0.66163        2.82143
C          5.40098        0.81748        4.29213
C          5.65741        2.24949        4.85662
F          6.95239        2.61237        4.68349
F          4.88038        3.16216        4.23509
F          5.38911        2.31071        6.18319
F          4.09149        0.52049        4.60017
F          6.18011       -0.03035        5.06525
H          1.17805       -0.76517       -1.58699
H          0.86146       -0.30563        0.09795
H          1.50305       -1.93538       -0.27232
H          4.56047       -1.44640       -1.32303
H          2.81950        1.21716       -0.97858
H          4.21573        1.24280        0.42744
H          3.75368       -1.97350        1.57093
H          3.23116       -0.50422        2.40830
H          6.14372       -0.94038        1.46925
H          5.61370       -1.49482        3.04639
H          5.12730        1.40169        2.24572
H          6.76953        0.91574        2.69845
