26

S          4.29026        1.53444        0.98551
Ga         2.99332        0.13068       -0.28416
S          2.67686       -1.83128        1.27511
O          3.77553       -2.82048        1.18938
O          2.17010       -1.49660        2.62268
C          1.18904       -2.83798        0.52641
F          1.39955       -3.11212       -0.79315
F          1.02028       -4.02054        1.16698
F          0.01778       -2.15538        0.61043
C          4.14007       -0.60894       -1.74824
C          5.60895       -0.75249       -1.33700
C          6.53658       -1.23986       -2.45808
C          7.99664       -1.32543       -2.01981
N          8.86264       -1.79074       -3.12226
H          3.28793        1.88777        1.82137
H          1.49813        0.59200       -0.46267
H          4.04624        0.06821       -2.61540
H          3.72644       -1.58156       -2.05878
H          5.68000       -1.44336       -0.48067
H          5.98628        0.21878       -0.97052
H          6.46291       -0.56993       -3.33168
H          6.20097       -2.23633       -2.80055
H          8.05949       -1.96240       -1.11519
H          8.34573       -0.32251       -1.72267
H          8.55609       -2.72104       -3.41631
H          9.82114       -1.90528       -2.78742
