62

C          2.00080        0.12764       -1.28185
C          0.68715        0.04147       -0.54147
C         -0.44087       -0.54388       -1.13240
C         -1.66564       -0.59337       -0.45540
C         -1.83012       -0.07253        0.84285
C         -0.68403        0.50594        1.42272
C          0.54415        0.56498        0.75267
In        -3.83103       -0.10657        1.82787
C         -4.91172       -1.79601        0.78729
C         -4.29298       -3.04013        0.55962
C         -4.92804       -4.06885       -0.15242
C         -6.22005       -3.89230       -0.65703
C         -6.85412       -2.66786       -0.44394
C         -6.20486       -1.63985        0.26018
C         -8.22417       -2.42209       -1.01330
F         -8.84938       -3.56914       -1.41472
F         -9.05933       -1.81890       -0.11749
F         -8.19140       -1.60296       -2.10960
C         -4.24542       -5.39385       -0.34699
F         -2.88946       -5.29055       -0.38671
F         -4.53084       -6.27908        0.66367
F         -4.62465       -6.01756       -1.50423
C         -4.88798        1.72680        1.06972
C         -4.21919        2.59326        0.18053
C         -4.82499        3.72869       -0.36052
C         -6.15569        4.03322       -0.03134
C         -6.85478        3.19125        0.84480
C         -6.21816        2.06813        1.38382
C         -6.79935        5.26773       -0.59281
C         -7.21128        5.25221       -2.11573
C         -8.25641        4.19474       -2.63937
C         -9.77257        4.22550       -2.17447
C        -10.60242        5.54506       -2.40048
C        -12.16506        5.34614       -2.33004
F        -12.52545        4.69825       -1.20710
F        -12.74906        6.56440       -2.32556
F        -12.62684        4.66757       -3.39444
F        -10.27692        6.45052       -1.44701
F        -10.33237        6.06998       -3.62451
F        -10.38259        3.23652       -2.89316
F         -9.84578        3.89635       -0.86300
F         -8.26997        4.31499       -4.00009
F         -7.80791        2.95315       -2.33185
F         -7.68666        6.48821       -2.46040
F         -6.08227        5.03064       -2.84781
F         -7.93130        5.62409        0.10603
F         -5.93382        6.34700       -0.51058
H          2.05008       -0.61100       -2.09438
H          2.85574       -0.04458       -0.61164
H          2.14204        1.12247       -1.73608
H         -0.35843       -0.96832       -2.13870
H         -2.51524       -1.06058       -0.96391
H         -0.74009        0.92423        2.43308
H          1.40950        1.02353        1.24344
H         -3.82820       -0.25263        3.58397
H         -3.27832       -3.21640        0.92559
H         -6.71623       -4.68733       -1.21126
H         -6.72981       -0.68847        0.38402
H         -3.18378        2.37817       -0.10033
H         -4.26464        4.38381       -1.02981
H         -7.88692        3.42102        1.11267
H         -6.79140        1.44665        2.07885
