40

C          2.58775        1.72566        0.41726
C          3.85265        0.93243        0.07384
C          3.77853       -0.54733        0.48558
C          5.00964       -1.37431        0.10876
Ta         5.26310       -3.45507        0.66427
S          4.06831       -5.26582        1.88645
O          5.17148       -6.25147        2.04427
O          3.26257       -4.95913        3.08575
C          2.78557       -6.37526        0.86607
C          1.26673       -5.99336        0.85356
C          0.84127       -4.59112        0.29821
F          1.29457       -4.39505       -0.95343
F         -0.52004       -4.54559        0.25259
F          1.25118       -3.58913        1.08555
F          0.61274       -6.91538        0.06058
F          0.75194       -6.10022        2.10437
F          3.18302       -6.52838       -0.42805
F          2.83044       -7.61046        1.45512
C          7.11753       -3.83910       -0.41118
C          7.62440       -5.26977       -0.26880
C          9.02122       -5.55212       -0.79950
O          9.75516       -4.78522       -1.37788
O          9.44932       -6.84858       -0.58223
H          2.67069        2.78033        0.11528
H          2.38498        1.70314        1.49894
H          1.70616        1.30238       -0.08808
H          4.72859        1.40020        0.55584
H          4.04141        0.98904       -1.01205
H          2.89107       -1.00925        0.02335
H          3.60457       -0.60284        1.57502
H          5.93123       -0.91576        0.54364
H          5.15996       -1.35516       -0.99049
H          5.59843       -3.51993        2.42839
H          3.63461       -3.41018        0.01563
H          4.90200       -4.80983       -0.38445
H          7.83985       -3.13175        0.05416
H          7.05239       -3.55757       -1.47508
H          6.93183       -5.95847       -0.78364
H          7.59909       -5.60198        0.78538
H          8.74785       -7.32141       -0.09917
