41

C          0.70498        3.94094        4.18266
O          2.08171        3.82279        4.46565
C          2.75855        5.07378        4.36410
C          4.25219        4.88552        4.54063
O          4.81355        4.33846        3.37116
C          6.25866        4.18163        3.48525
C          6.86035        3.60801        2.23164
Ga         8.87162        3.37409        2.44632
C          9.75005        2.15897        1.07853
C          9.43519        2.36306       -0.40802
C          9.98473        3.68677       -0.94353
C          9.74887        3.89172       -2.43688
N         10.22309        5.20805       -2.84006
C         10.34366        5.60352       -4.14794
N         10.00773        4.94821       -5.21329
N         10.92569        6.87851       -4.28965
Br         9.78462        5.71295        2.23219
H          0.26358        2.93977        4.27845
H          0.52786        4.31332        3.15459
H          0.19407        4.62635        4.88977
H          2.37729        5.76731        5.14297
H          2.56465        5.53025        3.37365
H          4.43811        4.23509        5.42240
H          4.70153        5.87699        4.76940
H          6.46298        3.52780        4.35668
H          6.69520        5.17490        3.71029
H          6.65828        4.26463        1.37211
H          6.42000        2.61983        2.01597
H          9.28647        2.95586        3.93412
H          9.43928        1.14430        1.38631
H         10.84093        2.20027        1.23903
H          8.34230        2.34106       -0.56858
H          9.84625        1.53537       -1.02198
H         11.07024        3.73182       -0.74399
H          9.54231        4.52179       -0.37709
H          8.67254        3.80067       -2.66863
H         10.27093        3.10317       -3.01382
H         10.76225        5.71426       -2.14474
H          9.70365        4.00190       -4.97096
H         10.57463        7.56377       -3.62398
H         10.81364        7.20074       -5.24740
