38

O          2.05956        1.38527       -0.38910
C          1.60001        0.55832       -1.34793
O          1.16119        1.00189       -2.40051
C          1.74107       -0.91064       -1.07343
P          3.48353       -1.58614       -1.58822
S          4.01436       -1.09729        1.32152
O          3.06549        0.02014        1.69340
O          3.79224       -2.35905        2.07084
C          5.63258       -0.32762        2.18237
C          6.91075       -1.19784        2.18750
F          7.27432       -1.50625        0.92093
F          7.96069       -0.53592        2.75726
F          6.73553       -2.34146        2.87315
F          5.93061        0.83113        1.51581
F          5.33170       -0.01478        3.47230
C          5.26716       -2.24819       -1.65132
C          5.56976       -3.49924       -1.11776
C          6.87063       -4.00601       -1.19829
C          7.87997       -3.26753       -1.82050
C          7.57533       -2.00909       -2.34642
C          6.27755       -1.49600       -2.24930
C          8.64552       -1.22439       -3.05782
F          9.89887       -1.52825       -2.61647
F          8.64628       -1.47391       -4.40727
F          8.48878        0.11723       -2.91797
C          7.20916       -5.32373       -0.55149
F          7.57241       -5.17543        0.75396
F          6.16285       -6.19377       -0.56930
F          8.25328       -5.95191       -1.17217
H          2.42293        0.86886        0.39961
H          1.03208       -1.48557       -1.68363
H          1.60248       -1.15565       -0.01304
H          4.02003       -0.23770       -1.71669
H          3.17387       -1.83344       -2.95584
H          3.09115       -2.87023       -1.00556
H          4.78162       -4.06910       -0.61686
H          8.89367       -3.65963       -1.87895
H          6.05091       -0.49568       -2.63080
