53

F          4.22790        3.07576        0.60405
C          4.96024        2.51506       -0.40704
C          6.42224        2.53957        0.09953
F          6.77458        3.74765        0.63721
F          6.60072        1.61105        1.06755
F          7.30202        2.28944       -0.89817
Nb         4.14059        1.09647       -1.89371
S          5.06224       -1.15286       -2.00924
O          5.16677       -2.16189       -3.07665
O          6.18812       -0.12308       -1.89930
C          5.26153       -2.18180       -0.37164
C          6.30351       -3.34294       -0.48388
C          6.75536       -3.96268        0.88975
F          7.50396       -3.10381        1.60315
F          5.68821       -4.32700        1.63073
F          7.50035       -5.06924        0.65658
F          5.77780       -4.35883       -1.21542
F          7.42938       -2.88785       -1.09581
F          5.62836       -1.36137        0.63824
F          4.04203       -2.71194       -0.08656
C          2.88759        2.02228       -3.42759
C          3.76001        2.52698       -4.41555
C          3.30144        3.12473       -5.59365
C          1.92152        3.23196       -5.81081
C          1.02360        2.74133       -4.84565
C          1.50845        2.15189       -3.68030
C          1.41481        3.89251       -7.06094
C          1.58677        3.10744       -8.41869
C          0.97137        1.66555       -8.57788
C         -0.59456        1.42748       -8.54123
C         -1.49752        2.20125       -9.57365
C         -2.93267        1.57709       -9.76608
F         -3.53771        1.36901       -8.58242
F         -3.68130        2.44265      -10.48268
F         -2.87838        0.41493      -10.43991
F         -1.67209        3.47613       -9.15111
F         -0.91042        2.21502      -10.79889
F         -0.75612        0.09224       -8.78204
F         -1.05475        1.68797       -7.29423
F          1.40800        1.19459       -9.78260
F          1.48194        0.86901       -7.60606
F          1.09179        3.87239       -9.43781
F          2.92385        2.94704       -8.63797
F          0.08004        4.21134       -6.96738
F          2.08619        5.08125       -7.29258
F          4.95044        3.47699       -1.50175
H          2.60588        0.30403       -1.80350
H          2.85489        1.83805       -0.99773
H          3.75825        0.37811       -0.35542
H          4.85090        2.48216       -4.27209
H          4.00674        3.51940       -6.32606
H         -0.05007        2.83189       -5.01133
H          0.80072        1.78064       -2.93646
