50

C          0.55572        2.86469       -0.26367
C          1.98486        2.71480       -0.80950
C          2.80745        1.57905       -0.18410
Al         4.67491        1.36617       -0.97698
C          5.69031       -0.23119       -0.16968
C          5.32633       -1.52872       -0.83060
O          6.16597       -2.64681       -0.38734
C          5.89545       -3.82247       -1.10865
C          6.87349       -4.91492       -0.72248
O          6.52587       -5.47657        0.54192
C          7.47309       -6.42618        0.97644
C          5.75655        3.07936       -0.70042
C          5.78533        3.65193        0.72078
C          6.63780        4.92204        0.92153
C          6.12828        6.12266        0.12695
N          6.97435        7.29120        0.35173
C          6.73379        8.50191       -0.26511
N          5.86328        8.77889       -1.17729
N          7.57914        9.52885        0.20802
H          0.00561        3.69358       -0.74284
H          0.56913        3.05290        0.82206
H         -0.02123        1.94005       -0.42525
H          2.51368        3.67592       -0.67201
H          1.93217        2.56946       -1.90345
H          2.25528        0.62644       -0.30842
H          2.86930        1.73732        0.91126
H          4.54826        1.10496       -2.60827
H          5.53184       -0.30185        0.92054
H          6.76618       -0.03440       -0.32810
H          5.43651       -1.45400       -1.93134
H          4.27102       -1.80459       -0.62814
H          5.99480       -3.64518       -2.20314
H          4.85784       -4.18285       -0.93516
H          7.89495       -4.48812       -0.67941
H          6.86537       -5.71200       -1.49597
H          7.13338       -6.80871        1.94837
H          8.47833       -5.97686        1.10041
H          7.56226       -7.27590        0.26835
H          5.34612        3.82787       -1.40372
H          6.79360        2.89249       -1.04166
H          6.16615        2.88894        1.42203
H          4.75543        3.86843        1.06015
H          7.67860        4.71429        0.61865
H          6.66181        5.19541        1.99519
H          5.07651        6.33251        0.40622
H          6.13722        5.88318       -0.94719
H          7.37682        7.35540        1.28273
H          5.23905        7.98413       -1.33902
H          8.55397        9.24309        0.27705
H          7.47894       10.34843       -0.38615
