14

Sb         0.50789       -0.59401        0.17351
C          0.39699       -1.60105       -1.81821
N          0.91995       -0.75551       -2.89811
S          1.00818        0.96952        2.28639
O          2.47124       -0.09077       -0.46606
H         -0.07150        0.92839       -0.55145
H          1.25470       -1.92679        1.07514
H         -1.11943       -1.02386        0.77969
H         -0.64670       -1.88347       -2.02572
H          0.99872       -2.51998       -1.74899
H          1.82209       -0.39242       -2.56348
H          0.33252        0.08194       -2.95788
H          1.80080        0.04166        2.87282
H          2.73304        0.60674        0.15825
