46

I          1.27228       -0.89679        0.12741
N          3.05057        0.21528       -0.19370
C          3.51173        0.90844        0.85540
C          4.74049        1.63976        0.60528
C          5.35326        2.39895        1.58055
C          4.83708        2.52470        2.90388
C          3.63697        1.81431        3.15158
C          2.99612        1.04828        2.19058
Si         5.74505        3.46997        4.19909
C          7.55967        2.84344        4.31471
C          7.62569        1.31360        4.29226
C          8.96583        0.64465        4.55778
C         10.00028        0.47612        3.37872
C         10.67406        1.70961        2.65943
C         11.54500        2.76422        3.45035
C         12.84952        2.33268        4.23634
C         14.02187        1.62875        3.45634
F         14.35333        2.31394        2.34593
F         15.10170        1.59157        4.26911
F         13.71239        0.36912        3.11869
F         13.36753        3.49521        4.73022
F         12.51668        1.54054        5.28126
F         11.93693        3.68249        2.51954
F         10.76065        3.39941        4.35423
F         11.48897        1.18921        1.69266
F          9.70571        2.42429        2.03173
F         11.02524       -0.30958        3.82762
F          9.36726       -0.19910        2.37766
F          9.63749        1.22526        5.61247
F          8.73199       -0.66678        4.93816
C          5.90037        5.33184        3.85451
C          4.95693        3.26122        5.91241
H          5.17247        1.56563       -0.39474
H          6.28092        2.91831        1.30927
H          3.17968        1.86055        4.14563
H          2.07138        0.52423        2.43807
H          8.01974        3.24389        5.23110
H          8.10693        3.27872        3.46920
H          7.22904        0.92203        3.34356
H          6.97369        0.89519        5.07595
H          6.33275        5.50334        2.85797
H          6.54129        5.83369        4.59616
H          4.91120        5.81076        3.87263
H          4.92449        2.20730        6.22262
H          3.92469        3.63903        5.91718
H          5.52549        3.82291        6.66822
