86

S          5.02937        0.78268       -8.85773
C          4.30730        0.05143       -7.32057
C          4.94501        0.72013       -6.10140
C          4.44847        0.17110       -4.75751
Al         5.33929        1.17042       -3.22541
C          4.74404        0.50877       -1.39723
C          3.42085        0.09903       -1.11872
C          2.99721       -0.25971        0.16417
C          3.88685       -0.23619        1.25920
C          5.21431        0.15636        0.99735
C          5.62095        0.51598       -0.29171
Si         3.31382       -0.69837        2.97819
C          2.67984       -2.50251        2.96525
C          2.30831       -3.05133        4.34672
C          1.69951       -4.43716        4.32432
F          2.51703       -5.36454        3.75223
F          1.42908       -4.88625        5.59054
F          0.51942       -4.47869        3.64132
C          4.72970       -0.55599        4.22789
C          1.88350        0.41293        3.53850
C          7.35344        0.93811       -3.42287
C          8.13138        1.94757       -4.03205
C          9.49557        1.79159       -4.29337
C         10.17624        0.60572       -3.94573
C          9.42020       -0.40577       -3.31978
C          8.05264       -0.23742       -3.07424
Si        11.99271        0.40773       -4.35434
C         12.93401        1.97594       -3.79981
C         12.76622        2.29433       -2.30788
C         13.47687        3.57208       -1.89884
C         13.27606        4.05912       -0.41799
C         13.70364        3.13849        0.78846
C         15.21271        2.71217        1.01298
C         16.29463        3.84498        1.17260
C         17.65750        3.35496        1.79541
F         18.13710        2.28536        1.13321
F         18.55488        4.35739        1.69589
F         17.52296        3.04059        3.09517
F         16.58055        4.36891       -0.04243
F         15.82312        4.82780        1.98303
F         15.20871        1.98693        2.17074
F         15.59226        1.88858        0.00480
F         13.29954        3.77448        1.92136
F         13.01221        1.96707        0.69878
F         13.92087        5.25148       -0.25403
F         11.94159        4.27559       -0.23912
F         14.83671        3.47895       -2.11319
F         13.03912        4.63260       -2.66032
C         12.73512       -1.09836       -3.47901
C         12.26917        0.23897       -6.21913
H          4.31038        0.06562       -9.75410
H          4.50606       -1.02940       -7.31631
H          3.22034        0.21351       -7.32877
H          4.75656        1.80671       -6.15709
H          6.04021        0.60096       -6.17243
H          4.65693       -0.91290       -4.69537
H          3.34918        0.27930       -4.69470
H          5.01156        2.77293       -3.37594
H          2.68730        0.06412       -1.93189
H          1.95309       -0.55940        0.31354
H          5.94420        0.18746        1.81260
H          6.66297        0.81918       -0.43972
H          3.45298       -3.13439        2.50219
H          1.80653       -2.54355        2.29458
H          1.57510       -2.40791        4.85705
H          3.19128       -3.11386        5.00044
H          5.56016       -1.23102        3.97619
H          4.39228       -0.79883        5.24618
H          5.12858        0.46817        4.24841
H          1.05039        0.36766        2.82237
H          2.21459        1.45998        3.59035
H          1.49548        0.13339        4.52958
H          7.64842        2.88930       -4.31432
H         10.03764        2.61051       -4.78099
H          9.90356       -1.34228       -3.02216
H          7.51199       -1.05936       -2.59144
H         12.56375        2.81953       -4.40283
H         14.00088        1.85783       -4.04827
H         13.16131        1.47813       -1.68673
H         11.70127        2.40639       -2.05351
H         12.60928       -1.04420       -2.38829
H         13.81051       -1.18384       -3.69397
H         12.25358       -2.02658       -3.81851
H         11.84397        1.09966       -6.75466
H         11.77204       -0.66379       -6.60148
H         13.33859        0.17373       -6.46972
