31

C          0.88773       -0.51135        0.04005
O          2.29464       -0.58872       -0.04789
C          2.90002       -0.77628        1.23056
C          4.40909       -0.86669        1.05521
O          4.97097       -0.99807        2.34100
C          6.42248       -1.11945        2.30302
C          6.99662       -1.21889        3.68877
Ga         9.00924       -1.39814        3.63108
C          9.73522       -1.49689        5.61424
C         10.14395       -0.17024        6.29703
C         10.48430       -0.17448        7.82790
F          9.40096       -0.44637        8.58582
F         11.44546       -1.07423        8.12881
F         10.94404        1.05058        8.20978
F         11.25005        0.32662        5.66792
F          9.12036        0.73267        6.15530
F          8.75810       -2.07883        6.44246
F         10.84185       -2.34523        5.71789
F          9.67325        0.15965        2.89586
H          0.50335       -0.35167       -0.97627
H          0.56255        0.32944        0.68416
H          0.45056       -1.44469        0.44725
H          2.52061       -1.70253        1.70512
H          2.65442        0.06962        1.90193
H          4.78056        0.04271        0.53850
H          4.66074       -1.73486        0.41019
H          6.82767       -0.23926        1.76787
H          6.66978       -2.01654        1.69952
H          6.58087       -2.09071        4.21752
H          6.74772       -0.31950        4.27131
H          9.62461       -2.64060        2.85287
