51

O          2.47251        3.32770        4.59477
C          2.82818        2.00930        4.39986
O          2.92652        1.27886        5.35759
C          3.19544        1.65569        2.98074
C          4.30635        2.36526        2.47347
C          4.85049        2.04890        1.22988
C          4.28001        1.01162        0.48669
C          3.16727        0.33295        0.98967
C          2.57476        0.63194        2.22744
P          1.07975       -0.56079        2.75063
C          0.01897        0.82786        3.64369
C         -0.20433        2.13323        3.20158
C         -1.04442        3.01418        3.90745
C         -1.69352        2.59736        5.06762
C         -1.47580        1.28898        5.52144
C         -0.62500        0.42673        4.82186
C         -2.21211        0.80793        6.73995
F         -2.48478        1.81443        7.62567
F         -3.43055        0.25498        6.42193
F         -1.53397       -0.14737        7.42941
C         -1.23717        4.40801        3.38576
F         -0.04336        5.03579        3.12846
F         -1.92594        4.43334        2.20201
F         -1.92018        5.21822        4.24271
C         -0.00035       -0.35447        1.06843
C          0.07438        0.76202        0.02259
C         -0.84672        0.46369       -1.17711
C         -0.80525        1.52074       -2.26098
C         -1.72697        1.23574       -3.48589
F         -1.37536        0.07517       -4.09167
F         -3.02120        1.12786       -3.10114
F         -1.65102        2.22172       -4.40784
F         -1.18542        2.75454       -1.78042
F          0.46680        1.66737       -2.77505
H          2.33501        3.73828        3.72206
H          4.76585        3.14786        3.08359
H          5.71923        2.59429        0.85615
H          4.70240        0.73372       -0.48220
H          2.74237       -0.49305        0.41078
H          0.01196       -1.52259        3.13716
H          1.74006       -0.80111        4.03986
H          1.85570       -1.64638        2.11254
H          0.29430        2.49408        2.29921
H         -2.34415        3.27566        5.61647
H         -0.44429       -0.58731        5.19222
H         -1.02728       -0.39747        1.47051
H          0.18885       -1.32900        0.58153
H          1.10089        0.90037       -0.34502
H         -0.23216        1.72347        0.45916
H         -1.89092        0.37002       -0.84183
H         -0.56739       -0.49602       -1.63864
