44

F          0.74612       -0.25132        0.16566
C          2.09942       -0.15542        0.03477
C          2.61149       -0.78226       -1.24343
C          2.30180       -2.27724       -1.37923
Si         3.02963       -3.10532       -2.94028
C          2.42153       -2.19756       -4.46518
C          2.85109       -0.87934       -4.72379
C          2.31713       -0.14016       -5.78072
C          1.36645       -0.69642       -6.63937
C          0.95924       -2.01703       -6.42126
C          1.46804       -2.74843       -5.34193
Sb         0.53118        0.64904       -8.23072
S          3.11994        0.68276       -9.42382
O          3.89573       -0.58431       -9.42527
O          2.98216        1.39252      -10.72537
C          4.14647        1.83313       -8.40944
C          0.00713       -1.23541       -9.57551
F          1.00066       -2.15394       -9.75380
F         -1.07620       -1.95753       -9.07671
F         -0.37931       -0.84146      -10.83209
C          4.91593       -3.04240       -2.82255
C          2.46068       -4.90641       -2.91059
F          2.40491        1.17518        0.09931
F          2.63915       -0.72826        1.15398
H          3.69495       -0.58821       -1.26276
H          2.16883       -0.21091       -2.07245
H          1.21124       -2.43021       -1.39816
H          2.68294       -2.82421       -0.50106
H          3.61542       -0.41355       -4.09399
H          2.64205        0.89451       -5.93070
H          0.23293       -2.49268       -7.08289
H          1.11165       -3.77137       -5.19014
H         -1.09644        0.62448       -7.59314
H          0.16414        1.62390       -9.64133
H          1.07571        2.03503       -7.25583
H          4.38939        1.34664       -7.45810
H          3.59280        2.76622       -8.25126
H          5.05395        2.01300       -9.00059
H          5.29640       -2.01241       -2.86809
H          5.36636       -3.59335       -3.65985
H          5.26820       -3.49407       -1.88347
H          1.36435       -4.98243       -2.91745
H          2.82582       -5.40400       -2.00029
H          2.84443       -5.46108       -3.77783
