50

C          0.14434        1.73467       -0.22888
C          1.32749        0.85471        0.18578
C          2.55474        1.65722        0.63070
C          3.75133        0.79877        1.05573
C          4.96366        1.63492        1.49176
C          6.18497        0.83932        1.91287
As         7.80602        2.07976        2.14684
C          7.49932        2.11931        4.46538
C          8.01259        1.04118        5.43592
C          9.55409        1.00523        5.68970
F          9.98813        2.11035        6.32769
F          9.85834       -0.06319        6.47670
F         10.24930        0.87379        4.54459
F          7.44332        1.12580        6.69963
F          7.66480       -0.19329        4.94044
F          7.91667        3.34823        4.98340
F          6.11016        2.11497        4.64417
C          9.44053        3.34842        2.34231
C          9.25401        4.71189        2.55072
C         10.34961        5.58554        2.58977
C         11.64821        5.10159        2.41204
C         11.83215        3.73341        2.18961
C         10.73301        2.86436        2.16314
C         13.22189        3.18677        2.02280
F         14.12344        4.13676        1.62854
F         13.71681        2.65747        3.18560
F         13.28267        2.18677        1.09758
C         10.11898        7.04753        2.85593
F          9.12591        7.56817        2.07526
F          9.74692        7.28778        4.14959
F         11.22822        7.81367        2.63015
H         -0.72123        1.13483       -0.54671
H          0.41502        2.39752       -1.06522
H         -0.18359        2.37705        0.60279
H          1.60882        0.19592       -0.65395
H          1.01723        0.18193        1.00384
H          2.27083        2.32066        1.46711
H          2.86530        2.32903       -0.18970
H          4.04352        0.13635        0.22096
H          3.45047        0.13058        1.88199
H          4.66242        2.29711        2.32070
H          5.24225        2.30973        0.65924
H          6.52278        0.14397        1.12784
H          6.02382        0.27983        2.84364
H          6.88147        3.38436        2.26502
H          8.81341        0.84950        2.23873
H          7.94365        2.20482        0.56343
H          8.23521        5.09338        2.68027
H         12.49918        5.77907        2.43505
H         10.88192        1.79222        1.99311
