30

N          1.22126       -0.43220        0.29327
Al         3.00001       -0.31964        0.85289
C          3.86550        1.47104        0.37655
C          3.10634        2.58310       -0.04006
C          3.67873        3.82891       -0.33138
C          5.06086        4.03047       -0.22044
C          5.84407        2.93826        0.18792
C          5.25597        1.70195        0.47433
C          5.68796        5.37099       -0.52390
C          4.08835       -1.78696       -0.06000
C          3.85332       -1.89177       -1.56977
C          4.55513       -2.99448       -2.36637
O          4.34798       -3.20621       -3.56583
N          5.45956       -3.73237       -1.65212
H          0.92727       -0.09611       -0.62255
H          0.48613       -0.19060        0.95466
H          3.03681       -0.53750        2.48386
H          2.01979        2.47181       -0.13677
H          3.04272        4.66357       -0.64867
H          6.92927        3.06296        0.28118
H          5.91492        0.88457        0.79095
H          4.93016        6.09743       -0.85102
H          6.44487        5.29586       -1.32115
H          6.19506        5.79271        0.35921
H          3.80416       -2.73205        0.43966
H          5.15922       -1.61160        0.15808
H          4.13092       -0.95017       -2.07634
H          2.77865       -2.01905       -1.78630
H          5.51930       -3.58797       -0.64910
H          5.89948       -4.52972       -2.09303
