43

C          5.77847        2.54577        4.45840
C          7.04296        2.61184        3.59711
C          6.79741        2.25787        2.12734
C          8.05760        2.33298        1.26021
C          7.83612        1.93794       -0.20987
C          6.86446        2.84683       -0.99069
B          7.25760        4.45374       -1.10229
C          6.11951        5.26954       -1.98339
C          4.69665        5.32607       -1.39357
C          4.68484        6.09150       -0.06114
C          3.34493        6.14036        0.62363
C          3.34142        6.86655        2.00403
F          4.16439        6.24924        2.88180
F          3.75512        8.15207        1.87822
F          2.10125        6.89095        2.55288
F          2.39283        6.79976       -0.14066
F          2.83709        4.88036        0.86939
C          8.75641        4.67260       -1.75152
N          8.89702        4.11613       -3.13140
H          5.98269        2.80180        5.50928
H          5.33821        1.53638        4.43998
H          5.01291        3.24369        4.08727
H          7.80992        1.93445        4.01374
H          7.47230        3.62657        3.65264
H          6.03578        2.94023        1.71672
H          6.36489        1.24104        2.06580
H          8.83277        1.67883        1.70267
H          8.44634        3.36331        1.29251
H          7.49965        0.88048       -0.23485
H          8.82002        1.95004       -0.71194
H          5.85196        2.72754       -0.55743
H          6.75966        2.41483       -2.00952
H          7.31803        4.94837        0.04745
H          6.03995        4.82417       -2.99341
H          6.45866        6.31118       -2.15810
H          4.32535        4.30371       -1.21517
H          3.97941        5.80392       -2.08493
H          5.01251        7.13174       -0.21936
H          5.41908        5.63221        0.61874
H          9.52755        4.25056       -1.06937
H          8.97673        5.75616       -1.81240
H          8.42742        3.20835       -3.16041
H          9.87738        3.92605       -3.35339
