42

S          2.08355        0.70980       -0.53626
Nb         4.22957       -0.38319       -0.38476
S          4.61309       -1.66474        1.65802
O          3.13400       -1.60629        1.88976
O          5.30876       -2.94634        1.84691
C          5.35442       -0.73086        3.22605
C          4.64605        0.57205        3.74447
C          3.56871        0.35655        4.87338
C          2.62352        1.59232        5.11274
F          3.32832        2.72932        5.28423
F          1.76277        1.76352        4.09778
F          1.90239        1.37580        6.23982
F          2.76949       -0.69808        4.59682
F          4.21062        0.12306        6.05493
F          5.58766        1.41746        4.27365
F          4.05763        1.22694        2.70478
F          5.41919       -1.61729        4.26383
F          6.63511       -0.39805        2.89556
C          5.19360        1.00906       -1.83696
C          5.32653        2.46190       -1.36332
C          5.61042        3.45632       -2.49927
C          5.65935        4.90950       -2.03090
N          5.88775        5.80788       -3.15768
C          5.97058        7.17805       -2.99770
N          5.99209        7.85592       -1.89938
N          6.03599        7.86146       -4.22716
H          1.59966       -0.05924        0.47185
H          4.57616       -1.20369       -1.88908
H          4.21521       -2.14444       -0.48693
H          5.52382        0.48533        0.45389
H          4.54108        0.96347       -2.73201
H          6.16951        0.61432       -2.16972
H          6.12365        2.53056       -0.60496
H          4.40261        2.78264       -0.84967
H          4.81967        3.35375       -3.26550
H          6.56133        3.19816       -2.99490
H          6.47892        5.04273       -1.30568
H          4.71779        5.15997       -1.50427
H          5.46931        5.50266       -4.03252
H          5.80473        7.25355       -1.09379
H          6.67704        7.43720       -4.89427
H          6.25991        8.84026       -4.06588
