57

C          8.55525       -0.17257       -5.60432
C          8.14238       -0.14701       -4.13056
C          8.71646        1.04611       -3.35982
C          8.30505        1.08234       -1.88492
C          8.88110        2.27274       -1.11194
C          8.46871        2.30626        0.36304
C          9.05064        3.49565        1.13663
C          8.63914        3.53590        2.61640
Si         9.29779        5.03151        3.59558
C          8.73150        6.62620        2.77679
C          7.39157        7.05462        2.86680
C          6.94594        8.20577        2.21896
C          7.81924        8.99967        1.44948
C          9.15886        8.58515        1.36307
C          9.59643        7.42453        2.00652
C          7.32609       10.22868        0.67744
C          6.68729       11.31369        1.57541
C          7.53458       11.97663        2.73972
F          8.28119       11.07753        3.41231
F          8.31876       12.97314        2.31482
F          6.66926       12.52924        3.64864
F          6.24336       12.36928        0.82377
F          5.55775       10.81099        2.22206
C          8.50184       10.89921       -0.22699
O          8.29255       10.83774       -1.45650
O          9.45900       11.35658        0.43277
S          6.08404        9.71550       -0.59388
C          8.62222        4.91648        5.36267
C         11.18934        4.95690        3.66264
H          8.12900       -1.03813       -6.13141
H          9.64963       -0.22353       -5.70902
H          8.21800        0.73554       -6.12608
H          8.46288       -1.08261       -3.64091
H          7.04172       -0.12892       -4.05658
H          8.39841        1.98285       -3.85008
H          9.81861        1.02816       -3.43131
H          8.62019        0.14286       -1.39608
H          7.20292        1.10362       -1.81614
H          8.56574        3.21182       -1.59835
H          9.98328        2.25256       -1.18147
H          8.77894        1.36511        0.85238
H          7.36688        2.33560        0.43355
H          8.73971        4.43262        0.64525
H         10.15154        3.46619        1.05600
H          8.96265        2.60992        3.12607
H          7.53709        3.55139        2.69128
H          6.66938        6.47959        3.45492
H          5.89797        8.48825        2.31381
H          9.86378        9.19991        0.80424
H         10.64876        7.14635        1.90337
H          5.18683        9.18274        0.28627
H          7.52441        4.97547        5.37660
H          9.00567        5.73977        5.98195
H          8.91266        3.96740        5.83756
H         11.63860        4.97765        2.65989
H         11.52193        4.03285        4.15862
H         11.59589        5.80855        4.22648
