16

O          1.91326        3.30425        2.19915
N          2.19379        2.78842        0.85589
S          2.58740        1.25914        0.91859
O          2.03735        0.55439        2.09353
O          2.48644        0.65996       -0.40730
C          4.49017        1.10107        1.26275
C          5.05411       -0.31908        1.58258
C          6.61810       -0.47021        1.55970
F          7.12024       -0.34563        0.31474
F          7.21964        0.44096        2.35432
F          6.96934       -1.70399        2.01584
F          4.65901       -0.69554        2.83208
F          4.58132       -1.22841        0.68269
F          5.16706        1.58157        0.16921
F          4.80816        1.91006        2.32442
H          1.58153        2.51800        2.68546
