37

N          5.04343       -0.70345       -2.10108
C          4.06941        0.19544       -1.70197
O          2.90206        0.06189       -2.06521
C          4.57363        1.30339       -0.79472
C          4.54123        0.87463        0.69188
Al         5.64035        1.96537        1.96616
S          4.86957        4.30825        1.82511
O          5.78439        5.25181        2.49624
O          4.45023        4.63439        0.44324
C          3.23535        4.64294        2.88613
C          1.95342        3.87365        2.49233
F          1.53529        4.19882        1.25659
F          2.17432        2.53979        2.53851
F          0.93009        4.14519        3.35539
F          3.50741        4.34519        4.19174
F          2.96795        5.97646        2.79702
C          7.53945        2.19025        1.36794
C          7.94826        2.90436        0.22288
C          9.28914        2.96826       -0.17339
C         10.29258        2.31548        0.55526
C          9.90783        1.60332        1.70136
C          8.56699        1.54862        2.09321
C         11.73864        2.37254        0.12424
H          4.72202       -1.57890       -2.49944
H          5.94298       -0.70519       -1.63448
H          3.94193        2.18776       -0.94508
H          5.59893        1.57653       -1.09534
H          4.97975       -0.13869        0.79127
H          3.49610        0.77212        1.02143
H          5.49119        1.56129        3.52307
H          7.20845        3.44855       -0.37147
H          9.56479        3.54357       -1.06282
H         10.67092        1.09359        2.29879
H          8.31508        0.99616        3.00463
H         11.88279        3.09444       -0.69146
H         12.09189        1.39176       -0.23365
H         12.39643        2.66585        0.95653
