37

N          4.54547       -2.82422        0.19992
C          4.29372       -1.37407        0.07927
C          4.86790       -0.82091       -1.22256
C          4.60010        0.68460       -1.36725
C          5.14989        1.40389       -2.63714
C          4.64935        0.71613       -3.95263
C          3.11725        0.50367       -3.98006
C          2.62255       -0.39403       -5.12061
C          5.10250        1.43809       -5.23676
C          4.69590        2.94375       -2.43262
O          5.25920        3.50733       -1.45983
O          3.81824        3.38422       -3.21532
C          6.67102        1.33424       -2.48903
O          7.34826        2.24821       -3.43506
C          8.66444        2.30540       -3.35483
F          9.15424        2.65180       -2.12131
F          9.29883        1.10988       -3.66300
F          9.12445        3.22298       -4.24122
H          4.23014       -3.16009        1.11177
H          5.55390       -2.99173        0.17155
H          4.70097       -0.78650        0.92650
H          3.20137       -1.22290        0.08811
H          4.43780       -1.38779       -2.06365
H          5.95411       -1.02379       -1.23603
H          5.01808        1.22435       -0.50312
H          3.51365        0.85760       -1.32061
H          5.10924       -0.29526       -3.96830
H          2.64610        1.49669       -4.02389
H          2.79016        0.04543       -3.03454
H          2.78083        0.05824       -6.11013
H          1.54379       -0.58982       -5.02263
H          3.13672       -1.36996       -5.11826
H          4.71113        2.46437       -5.23297
H          4.72852        0.91379       -6.12863
H          6.19381        1.48434       -5.32107
H          7.06786        0.32538       -2.68969
H          6.93851        1.67531       -1.48116
