53

Br         2.57452        0.67449       -1.20511
C          3.26638       -0.50160        0.16349
S          3.18737       -2.12973       -0.26871
O          3.20682       -2.33266       -1.71054
O          4.02539       -2.95625        0.59891
C          1.44729       -2.77864        0.17958
F          0.47802       -2.12370       -0.50665
F          1.32111       -4.10345       -0.10177
F          1.18935       -2.61888        1.50285
C          3.58370        0.04879        1.45664
C          3.43004        1.44147        1.72186
C          3.76933        2.00467        2.94635
C          4.28925        1.24261        4.01368
C          4.43500       -0.14298        3.75459
C          4.09990       -0.72618        2.54198
Si         4.72667        1.99015        5.65962
C          3.36482        1.65407        6.96650
C          2.97458        0.17497        7.08199
C          1.94014       -0.08206        8.16202
C          1.34119       -1.53336        8.24668
C          2.29088       -2.77861        8.42752
C          3.20950       -2.93537        9.70730
C          2.52437       -2.95990       11.12454
C          3.44136       -3.53187       12.27286
F          4.64640       -2.93142       12.27906
F          2.83968       -3.29396       13.45715
F          3.61501       -4.85894       12.15059
F          2.18062       -1.70015       11.48112
F          1.40828       -3.73358       11.09112
F          3.84953       -4.13103        9.54558
F          4.14570       -1.95363        9.69723
F          1.49752       -3.88281        8.36904
F          3.14528       -2.82113        7.36844
F          0.43062       -1.57562        9.26489
F          0.67613       -1.76743        7.08027
F          2.44059        0.22252        9.41192
F          0.83613        0.72231        7.98569
C          6.34170        1.26023        6.33530
C          4.89473        3.87328        5.55174
H          3.03694        2.08302        0.93440
H          3.62418        3.08274        3.06619
H          4.84212       -0.80251        4.52851
H          4.24965       -1.79383        2.40370
H          2.47949        2.24826        6.69250
H          3.71341        2.03272        7.94167
H          3.85116       -0.44569        7.31781
H          2.57183       -0.19339        6.12661
H          6.29617        0.16382        6.40768
H          6.57438        1.65428        7.33607
H          7.17980        1.50438        5.66716
H          3.96038        4.34045        5.20911
H          5.68895        4.15864        4.84749
H          5.14122        4.30130        6.53466
