91

C          4.19392      -13.61866       -6.32456
C          5.55999      -12.98191       -6.05841
C          5.50137      -11.80562       -5.07866
C          6.86698      -11.17615       -4.78798
C          6.81148      -10.01206       -3.79357
C          8.18116       -9.40102       -3.48093
C          8.12452       -8.25298       -2.46536
C          9.49717       -7.64842       -2.13238
Si         9.48501       -6.27151       -0.81521
C          8.80203       -6.91469        0.80263
C          8.99440       -8.24883        1.21391
C          8.51287       -8.71795        2.44070
C          7.81252       -7.88286        3.34306
C          7.63073       -6.54523        2.92537
C          8.10151       -6.07761        1.70089
Nb         7.14359       -8.81502        5.20771
C          7.10847       -7.87295        7.18180
C          6.95478       -6.49217        7.46052
C          6.95942       -5.98141        8.75182
C          7.13004       -6.84202        9.85566
C          7.29275       -8.21566        9.61764
C          7.27911       -8.71028        8.31284
C          7.15989       -6.29009       11.24068
C          5.80573       -5.75572       11.84762
C          4.56675       -6.72079       11.97720
C          4.59373       -7.97702       12.94337
C          4.90590       -7.74739       14.46961
C          4.47834       -8.94316       15.40336
F          4.95897      -10.11578       14.95081
F          4.98376       -8.72204       16.63642
F          3.14082       -9.03297       15.51354
F          6.23784       -7.57414       14.63748
F          4.25165       -6.64719       14.92716
F          3.33570       -8.51065       12.86684
F          5.46523       -8.89465       12.46392
F          3.51945       -5.94335       12.38967
F          4.26217       -7.21408       10.75238
F          6.03807       -5.24359       13.09753
F          5.37019       -4.72777       11.06253
F          7.64616       -7.20164       12.15476
F          7.99279       -5.17713       11.32131
C          7.65616      -10.93650        5.34792
C          8.94354      -11.49963        5.26457
C          9.14846      -12.87833        5.38732
C          8.07146      -13.75203        5.59816
C          6.78112      -13.20402        5.68158
C          6.58172      -11.82589        5.55851
C          8.28850      -15.23981        5.73108
C         11.27073       -5.65847       -0.61241
C          8.43986       -4.81616       -1.44025
H          4.26696      -14.45869       -7.02998
H          3.49007      -12.88682       -6.74933
H          3.74710      -14.00107       -5.39472
H          6.00003      -12.63966       -7.01059
H          6.25121      -13.74582       -5.66363
H          5.04900      -12.14573       -4.13058
H          4.81914      -11.03391       -5.47768
H          7.31762      -10.82792       -5.73475
H          7.54764      -11.95332       -4.39740
H          6.34821      -10.35877       -2.85353
H          6.14253       -9.22648       -4.18767
H          8.64584       -9.04050       -4.41671
H          8.85132      -10.18929       -3.09420
H          7.65119       -8.61632       -1.53788
H          7.45550       -7.46532       -2.85399
H          9.96485       -7.24336       -3.04804
H         10.17706       -8.44629       -1.78339
H          9.53036       -8.94909        0.56304
H          8.68741       -9.77180        2.68776
H          7.09632       -5.84522        3.57701
H          7.91671       -5.03108        1.43576
H          5.84261       -8.53592        4.04944
H          8.49127       -7.70115        5.43626
H          5.52513       -8.49444        5.84324
H          6.84287       -5.78750        6.63056
H          6.85485       -4.90684        8.91186
H          7.43882       -8.89896       10.45567
H          7.40872       -9.78955        8.18049
H          9.81313      -10.85484        5.10073
H         10.16123      -13.28734        5.32111
H          5.92554      -13.86656        5.84648
H          5.55898      -11.43770        5.63194
H          9.35656      -15.49256        5.68863
H          7.77969      -15.79358        4.92663
H          7.88908      -15.61962        6.68397
H         11.92646       -6.46936       -0.26293
H         11.31802       -4.85315        0.13498
H         11.68070       -5.27044       -1.55776
H          7.38985       -5.10742       -1.58312
H          8.82484       -4.43908       -2.39985
H          8.45662       -3.98056       -0.72577
