51

F          6.55736        0.24010        0.55865
C          5.57303        1.07278        1.06481
Sb         3.78632       -0.08965        2.07819
C          2.09620       -1.19566        3.03744
C          2.33754       -2.20941        3.96998
C          1.28399       -2.90492        4.57647
C         -0.04991       -2.59843        4.27130
C         -0.29385       -1.58039        3.33569
C          0.76344       -0.89396        2.73005
C         -1.19231       -3.32404        4.94230
C          3.04824        1.88548        2.94684
C          2.27356        2.77462        2.19502
C          1.75521        3.94679        2.76075
C          1.99404        4.26867        4.11188
C          2.78443        3.36989        4.86111
C          3.30031        2.20560        4.28540
Si         1.31641        5.80622        4.94312
C          0.14763        6.74845        3.76132
C         -0.43457        8.02684        4.37694
C         -1.38644        8.77829        3.47110
F         -2.48519        8.04314        3.13763
F         -1.85175        9.91907        4.07114
F         -0.80440        9.16726        2.30186
C          0.33385        5.34101        6.49671
C          2.71908        6.97353        5.45921
F          6.24158        1.93009        1.91834
F          5.19193        1.86189       -0.00655
H          2.77838        0.28580        0.64327
H          4.78935       -0.27731        3.55309
H          4.44930       -1.57779        1.35855
H          3.37004       -2.46562        4.23356
H          1.49746       -3.70010        5.29843
H         -1.32743       -1.32200        3.08213
H          0.54277       -0.10530        2.00282
H         -0.83948       -4.22210        5.46866
H         -1.95648       -3.63580        4.21420
H         -1.69734       -2.68338        5.68356
H          2.06638        2.54646        1.14229
H          1.15234        4.61523        2.13736
H          2.99623        3.57872        5.91656
H          3.91101        1.52524        4.89174
H         -0.66788        6.07019        3.46530
H          0.69832        6.99697        2.84082
H          0.35856        8.74062        4.64580
H         -0.99893        7.81105        5.29690
H         -0.53484        4.71951        6.23624
H         -0.02610        6.22544        7.04345
H          0.95840        4.75621        7.18692
H          3.26097        7.35114        4.58041
H          3.44600        6.43750        6.08606
H          2.35315        7.83593        6.03669
