35

C          6.50821        4.02489        5.00933
C          6.27952        2.51192        4.98980
C          7.23135        1.76452        4.04972
C          6.98998        0.25035        4.02461
Ga         5.14314       -0.27026        3.32233
C          3.81542       -0.81873        4.78806
C          2.43649       -0.97921        4.22330
O          1.47575       -1.45186        5.22605
C          0.16989       -1.52419        4.71463
C         -0.76171       -2.11555        5.75441
O         -1.01995       -1.16839        6.78839
C         -1.73475       -1.73505        7.86224
O          4.40846        1.27326        2.44106
H          5.81943        4.53585        5.69981
H          6.35023        4.45159        4.00658
H          7.53756        4.27349        5.31667
H          5.24625        2.30427        4.67184
H          6.38584        2.10501        6.01159
H          8.27556        2.01239        4.33820
H          7.08562        2.17037        3.03292
H          7.14011       -0.17153        5.03577
H          7.73783       -0.23711        3.37580
H          5.21544       -1.43900        2.18988
H          3.81620       -0.06662        5.59300
H          4.16945       -1.77221        5.21549
H          2.42683       -1.71165        3.38925
H          2.06643       -0.01733        3.81963
H          0.12735       -2.17381        3.81049
H         -0.20453       -0.52335        4.40791
H         -0.29419       -3.02374        6.18360
H         -1.71813       -2.41374        5.27411
H         -1.86976       -0.94867        8.61729
H         -1.18408       -2.58017        8.32082
H         -2.73315       -2.10482        7.54875
H          4.30161        1.02787        1.51168
