25

C          1.22755       -0.47412       -1.01569
C          2.46812       -0.31001       -0.13047
C          2.87642        1.15845        0.08716
C          4.10450        1.35308        0.98304
Nb         4.82236        3.46283        1.18949
S          3.45148        5.51144        1.30844
O          4.69777        5.49139        2.22179
O          3.31175        6.69886        0.43207
C          2.06188        5.65009        2.47579
Cl         5.38763        3.36010       -1.17383
H          0.95211       -1.53148       -1.15355
H          1.39565       -0.04096       -2.01381
H          0.35816        0.04287       -0.58012
H          3.31823       -0.85316       -0.57796
H          2.29128       -0.78275        0.85144
H          2.01549        1.69446        0.53016
H          3.04608        1.62342       -0.89986
H          4.98651        0.85776        0.52380
H          3.93757        0.88023        1.95983
H          3.50127        3.22193        2.33760
H          5.09283        2.75134        2.77409
H          6.48056        3.62136        1.78130
H          2.19811        4.89532        3.25554
H          1.13466        5.47898        1.91609
H          2.09272        6.67568        2.86649
