47

C          0.84476       -0.18064        0.91247
C          2.36103       -0.14095        0.70354
C          2.86304       -1.15135       -0.33356
C          4.38761       -1.17905       -0.48224
C          4.89131       -2.17547       -1.53157
C          6.42238       -2.25754       -1.57922
C          7.01429       -3.38044       -2.45544
C          6.64133       -4.83580       -1.88263
O          6.15117       -4.87486       -0.72197
O          6.92808       -5.79328       -2.64976
C          6.51343       -3.31839       -3.91886
C          6.90604       -2.08223       -4.74327
C          6.34323       -2.17371       -6.15851
S          6.90142       -0.85589       -7.31467
C          8.56303       -3.30263       -2.44526
C          9.23973       -3.59295       -1.09933
C         10.76396       -3.69282       -1.21395
C         11.45048       -3.99442        0.12123
H          0.51325        0.56323        1.65234
H          0.52235       -1.17130        1.26752
H          0.30768        0.02056       -0.02724
H          2.86809       -0.33069        1.66503
H          2.66546        0.87503        0.39762
H          2.39823       -0.92861       -1.31129
H          2.51345       -2.16126       -0.05641
H          4.83561       -1.43773        0.49348
H          4.74991       -0.16210       -0.72424
H          4.48156       -1.89368       -2.51829
H          4.51359       -3.18106       -1.29023
H          6.76917       -2.42915       -0.54928
H          6.83191       -1.27717       -1.89863
H          5.41395       -3.41429       -3.92260
H          6.89257       -4.22980       -4.40786
H          8.00034       -1.98468       -4.80512
H          6.53610       -1.15582       -4.26873
H          5.24430       -2.19172       -6.15331
H          6.67969       -3.10145       -6.64639
H          6.46528        0.19370       -6.57848
H          8.89594       -2.30652       -2.79631
H          8.92606       -4.04351       -3.17797
H          8.83999       -4.53468       -0.69054
H          8.98562       -2.80909       -0.36507
H         11.16886       -2.75385       -1.63259
H         11.01558       -4.48277       -1.94217
H         11.24704       -3.20336        0.85973
H         12.54279       -4.07906        0.01342
H         11.08012       -4.93954        0.54608
