57

C          8.86295       -5.61673       -1.33503
C          8.42902       -4.19302       -0.97402
C          8.84341       -3.14484       -2.01339
C          8.38092       -1.72327       -1.67662
C          8.81670       -0.66776       -2.69956
C          8.30420        0.74177       -2.38457
C          8.81617        1.82490       -3.34448
C          8.30182        3.23276       -3.01126
Si         9.02648        4.66184       -4.04122
C          8.52715        4.60211       -5.84692
C          7.17150        4.72977       -6.21325
C          6.79011        4.85576       -7.55380
C          7.72532        4.86194       -8.61005
C          9.07082        4.68477       -8.23275
C          9.46725        4.56218       -6.89563
In         7.08524        5.26333      -10.73801
C          4.84677        5.22010      -10.77353
C          4.24692        3.83088      -10.52726
C          2.70868        3.79374      -10.53433
F          7.64102        3.55253      -11.76643
C          8.37321        6.26697       -3.27069
C         10.91211        4.63755       -3.85292
H          8.55300       -6.34272       -0.56970
H          9.95664       -5.68736       -1.43651
H          8.42453       -5.93572       -2.29268
H          8.85079       -3.91677        0.00770
H          7.33307       -4.16423       -0.84839
H          8.44177       -3.43349       -3.00082
H          9.94271       -3.15665       -2.12261
H          8.76413       -1.44180       -0.67918
H          7.27989       -1.71258       -1.58801
H          8.47087       -0.96569       -3.70466
H          9.91990       -0.65070       -2.75478
H          8.59705        1.01274       -1.35357
H          7.19980        0.74038       -2.39125
H          8.53422        1.56686       -4.37913
H          9.92009        1.81395       -3.32425
H          8.51358        3.46495       -1.95077
H          7.20243        3.26408       -3.10905
H          6.39698        4.75253       -5.43701
H          5.72329        4.96894       -7.77527
H          9.84711        4.65510       -9.00408
H         10.53267        4.45293       -6.66836
H          7.96848        6.60023      -11.49567
H          4.50763        5.61014      -11.74851
H          4.47867        5.93357      -10.01372
H          4.60238        3.43047       -9.56151
H          4.62850        3.12663      -11.28507
H          2.29281        4.44904       -9.75170
H          2.31356        2.77731      -10.36425
H          2.31073        4.14927      -11.49861
H          7.27674        6.31220       -3.33855
H          8.77287        7.14002       -3.80529
H          8.65316        6.35083       -2.20988
H         11.35786        3.73140       -4.28610
H         11.18771        4.67457       -2.78843
H         11.36693        5.50538       -4.35072
