26

N          2.33862        0.64224        0.83497
C          1.87505       -0.73380        0.53359
C          2.95510       -1.54216       -0.17281
In         4.99758       -1.78297        0.80524
C          6.12939        0.16235        0.42987
C          7.02410        0.68035        1.55246
C          7.68756        2.01430        1.19231
S          8.87021        2.69592        2.44441
C          6.00255       -3.30927       -0.52741
H          1.53831        1.26374        0.96969
H          2.84699        0.99949        0.02279
H          0.93046       -0.71125       -0.06201
H          1.62071       -1.21350        1.49538
H          3.12985       -1.11164       -1.17844
H          2.58324       -2.56554       -0.34970
H          4.92499       -2.23347        2.53381
H          5.36587        0.92005        0.18135
H          6.72958       -0.00191       -0.48341
H          7.81142       -0.05042        1.80208
H          6.43590        0.82016        2.47696
H          6.92754        2.78069        0.98220
H          8.30553        1.90542        0.28791
H          8.03411        2.58303        3.50410
H          6.54910       -2.78452       -1.32831
H          5.25504       -3.95967       -1.00946
H          6.72067       -3.95300        0.00258
