64

N          2.39340       -2.17382       -2.77860
C          2.47779       -1.71861       -1.36224
C          3.12101       -0.35970       -1.24352
S          2.08473        0.89615       -0.82603
O          2.58890        2.23307       -1.14537
O          0.68401        0.57215       -1.09369
C          2.08309        0.95996        1.10892
C          1.03085        1.83488        1.86554
C          0.95218        3.36091        1.51819
F          2.15999        3.95070        1.58546
F          0.41885        3.57350        0.30971
F          0.14612        3.96919        2.43506
F         -0.21418        1.31996        1.68759
F          1.31194        1.77023        3.21585
F          1.87770       -0.31958        1.57034
F          3.32305        1.34989        1.53782
C          4.56158       -0.21847       -1.34685
C          5.28480        1.00820       -1.25733
C          6.66717        1.05309       -1.36452
C          7.46390       -0.09815       -1.57327
C          6.75547       -1.31288       -1.66852
C          5.36846       -1.37660       -1.56364
Si         9.31983        0.00891       -1.73673
C          9.97478        1.35397       -0.55392
C         11.49206        1.58991       -0.53917
C         11.92305        2.71668        0.40900
C         13.43506        2.95694        0.45001
C         13.84882        4.09259        1.39141
C         15.36057        4.33028        1.45013
C         15.76981        5.46573        2.39385
C         17.28271        5.69098        2.45087
C         10.12804       -1.65444       -1.30807
C          9.84299        0.46429       -3.50737
H          2.27713       -3.19071       -2.80532
H          3.28280       -1.97623       -3.24154
H          3.03589       -2.44028       -0.72880
H          1.45322       -1.67723       -0.97230
H          4.73460        1.93290       -1.10089
H          7.14492        2.03431       -1.27794
H          7.29837       -2.25065       -1.82449
H          4.89403       -2.35575       -1.64202
H          9.62603        1.09754        0.46157
H          9.46116        2.29808       -0.80723
H         11.84723        1.82825       -1.55726
H         12.01434        0.66103       -0.24926
H         11.56159        2.48782        1.42704
H         11.41207        3.64958        0.11202
H         13.79810        3.17856       -0.56949
H         13.94462        2.02594        0.75638
H         13.47558        3.87537        2.40786
H         13.34547        5.02462        1.07909
H         15.73622        4.54923        0.43463
H         15.86468        3.39867        1.76361
H         15.39071        5.24789        3.40672
H         15.26920        6.39675        2.07827
H         17.80570        4.78582        2.79491
H         17.54646        6.50905        3.13623
H         17.68396        5.94497        1.45808
H          9.89325       -1.95505       -0.27693
H         11.22225       -1.60467       -1.40974
H          9.77173       -2.45222       -1.97594
H          9.39828        1.42375       -3.80910
H          9.48956       -0.29793       -4.21708
H         10.93573        0.54478       -3.61332
