30

C          1.14988        0.04906       -0.17278
C          2.54907       -0.54234        0.07573
Al         3.32067       -0.17623        1.90093
C          2.07617       -1.09595        3.34970
C          1.59105       -2.56723        3.27854
C          2.69931       -3.66827        3.26431
F          3.48246       -3.61785        4.36207
F          2.12491       -4.90141        3.23244
F          3.48452       -3.56079        2.17471
F          0.75456       -2.89370        4.32828
F          0.86735       -2.74444        2.12596
F          2.61215       -0.95856        4.64764
F          0.86510       -0.37440        3.39022
C          5.24218       -0.81728        2.08063
C          5.75861       -0.84377        3.50735
S          7.56463       -1.24357        3.59820
C          7.81323       -1.24776        5.39914
H          0.77261       -0.11826       -1.19910
H          1.13968        1.13734        0.00042
H          0.40503       -0.37910        0.51541
H          3.25901       -0.13717       -0.67004
H          2.53263       -1.63218       -0.10467
H          3.20840        1.38891        2.36069
H          5.83499       -0.10195        1.48110
H          5.37428       -1.80365        1.60665
H          5.24111       -1.60182        4.11277
H          5.62010        0.12973        4.00438
H          8.86642       -1.49329        5.59025
H          7.18043       -2.00422        5.88590
H          7.59577       -0.26206        5.83588
