23

Br         1.21996        0.30890        0.07475
Al         3.50191        0.54955        0.38499
S          4.12511       -1.77023        0.90252
O          3.80594       -1.97374        2.32732
O          3.66531       -2.77828       -0.06495
C          6.06497       -2.06728        0.81309
C          6.93725       -1.31676        1.85011
F          6.72554       -1.77265        3.09802
F          8.26425       -1.47600        1.57635
F          6.67121        0.00628        1.81924
F          6.27448       -3.40232        0.97048
F          6.48796       -1.70607       -0.43210
C          4.47755        1.40452       -1.24074
C          4.09761        1.23904       -2.73554
C          4.27700       -0.19110       -3.33394
F          3.60145       -1.09953       -2.61241
F          3.79629       -0.21510       -4.60451
F          5.57578       -0.54868       -3.38239
F          2.78347        1.57764       -2.89286
F          4.83780        2.08691       -3.52625
F          4.31785        2.78281       -1.01168
F          5.85158        1.17583       -1.16367
H          3.96208        1.36108        1.67223
