35

C          4.75286       -2.90689        1.32683
C          3.40595       -2.18326        1.41339
C          2.88391       -1.46875        0.14238
C          2.65796       -2.35224       -1.14463
S          1.66916       -3.82229       -0.64949
O          2.44524       -4.79689        0.07406
O          0.37664       -3.43622       -0.10513
F          1.30245       -4.50876       -2.07066
C          1.96602       -1.53383       -2.24038
C          2.73026       -0.53275       -2.87755
C          2.17921        0.28280       -3.86404
C          0.84428        0.14305       -4.27240
C          0.08405       -0.84562       -3.63851
C          0.62431       -1.66293       -2.64083
C          0.26316        1.00662       -5.36543
C          4.11417       -2.86802       -1.77163
O          5.00730       -1.99737       -1.66521
O          4.10139       -3.99125       -2.29409
C          1.68365       -0.58742        0.52928
H          5.05116       -3.25382        2.32880
H          5.53628       -2.24597        0.93333
H          4.70570       -3.78394        0.67100
H          3.48514       -1.39019        2.17782
H          2.63641       -2.87659        1.79119
H          3.70342       -0.82297       -0.21664
H          3.77973       -0.42920       -2.59796
H          2.80980        1.04291       -4.33467
H         -0.96349       -0.98233       -3.92212
H         -0.02528       -2.39418       -2.16474
H          0.59720        2.05101       -5.27490
H         -0.83574        0.99751       -5.34078
H          0.57246        0.65511       -6.36361
H          0.84738       -1.18930        0.91180
H          1.31504        0.00177       -0.31976
H          1.98833        0.11447        1.32079
