26

C          1.04199        0.45467       -0.18741
C          2.49532       -0.02401       -0.00093
C          3.16726        0.43135        1.26795
C          2.70255       -0.32197        2.49085
C          2.90989        0.43604        3.82367
C          2.12536        1.74424        3.82921
S          2.53602        2.91122        5.18131
C          4.67739        0.53764        1.14493
C          5.47313       -0.78252        0.90936
H          0.58845        0.04614       -1.11254
H          1.00537        1.55551       -0.21795
H          0.40831        0.13406        0.65540
H          3.08131        0.34062       -0.86689
H          2.46610       -1.15258       -0.13757
H          3.17199       -1.34714        2.63535
H          1.62283       -0.54079        2.39701
H          3.97949        0.66384        3.96009
H          2.60969       -0.19360        4.68291
H          1.04017        1.56063        3.83721
H          2.36615        2.26939        2.88663
H          2.31148        2.08188        6.23190
H          5.11001        1.01971        2.04400
H          4.92631        1.22166        0.31008
H          5.29304       -1.50960        1.71753
H          6.56387       -0.60496        0.86003
H          5.16944       -1.26302       -0.03424
