19

F          3.24959       -2.22800       -1.12980
Nb         3.90484       -0.59737       -0.47502
S          3.45080       -0.22630        1.92857
O          3.79279        1.11144        2.43992
O          2.12143       -0.79617        2.23432
C          4.56322       -1.36147        3.01998
F          4.56384       -2.63714        2.54397
F          5.84800       -0.94268        3.07402
F          4.09199       -1.39840        4.28960
C          3.59095        0.86304       -2.16001
C          4.06537        2.33599       -2.13920
F          3.49049        3.02399       -1.12703
F          5.40955        2.42280       -1.98915
F          3.75422        2.99200       -3.29694
F          4.15412        0.30598       -3.32308
F          2.21990        0.92426       -2.46493
H          5.40118       -0.83111        0.40984
H          5.42519       -0.12533       -1.19189
H          2.75076        0.64731       -0.01183
