26

O          2.90670       -1.19456       -0.41751
C          2.40369       -0.09946       -0.13076
O          1.49449        0.28572        0.61263
C          3.18138        1.13300       -0.91819
S          2.95054        1.09582       -2.75972
O          1.62512        1.57287       -3.09886
O          4.14117        1.62418       -3.40834
C          2.92932       -0.73964       -3.35284
F          4.03998       -1.41440       -3.03007
F          1.84078       -1.40726       -2.97816
F          2.89835       -0.61639       -4.70745
S          2.64039        2.84290       -0.34742
O          3.17517        3.04878        0.98475
O          2.93533        3.80428       -1.40009
C          0.70282        2.93170       -0.11589
F         -0.00694        2.10926       -0.88123
F          0.37956        2.77959        1.16819
F          0.39896        4.20909       -0.46808
C          4.69646        1.04739       -0.68230
O          4.93328        0.77099        0.72308
C          6.21435        0.69758        1.08988
F          6.92570       -0.26431        0.41816
F          6.91043        1.86470        0.89780
F          6.26786        0.40366        2.40279
H          5.21507        1.97263       -0.97019
H          5.07985        0.20489       -1.27284
