31

C          3.51657       -0.14360        1.80593
C          2.80232       -0.03886        0.45675
C          2.84673        1.36205       -0.19466
C          4.20733        1.97217       -0.44731
S          4.95841        1.76505       -1.88660
O          4.09288        1.27651       -2.96438
O          5.91381        2.87938       -2.15111
C          6.27350        0.33068       -1.82217
C          7.06160       -0.12712       -3.08833
C          7.88392        0.94642       -3.87984
F          8.70340        1.64468       -3.07244
F          8.66379        0.30084       -4.79470
F          7.09286        1.78991       -4.55326
F          7.97703       -1.09251       -2.70877
F          6.21022       -0.70867       -3.97476
F          7.20379        0.65056       -0.86025
F          5.62440       -0.80187       -1.38422
C          4.89868        2.81623        0.60977
C          4.60647        4.32187        0.52372
O          4.12384        4.97002        1.43852
O          4.94372        4.91167       -0.63945
H          3.43090       -1.15649        2.22742
H          3.09531        0.56104        2.54060
H          4.58710        0.08214        1.70014
H          1.74309       -0.33001        0.57792
H          3.24760       -0.76139       -0.24460
H          2.28760        2.06737        0.44775
H          2.29256        1.31100       -1.14389
H          5.99414        2.70501        0.55420
H          4.59483        2.49921        1.61593
H          5.30443        4.21526       -1.26784
