37

C          0.47783       -2.23774       -2.78341
O          1.86590       -2.14500       -2.55020
C          2.60970       -2.11018       -3.76503
C          4.10144       -2.09515       -3.48745
O          4.52567       -3.36600       -3.04284
C          5.94727       -3.61246       -3.22725
C          6.86939       -2.83892       -2.31014
As         8.78853       -2.81222       -3.09167
C          9.74839       -3.31949       -1.24518
C         10.66795       -4.36034       -1.43731
C         11.44975       -4.87008       -0.39984
C         11.32091       -4.34163        0.89041
C         10.41807       -3.30776        1.11125
C          9.63884       -2.78166        0.05779
C          8.76987       -1.61872        0.46842
O          8.41617       -1.43144        1.62275
O          8.42862       -0.71704       -0.47891
F          8.57474       -4.69717       -3.47229
H         -0.01866       -2.27189       -1.80442
H          0.21664       -3.15392       -3.34993
H          0.09420       -1.36410       -3.34978
H          2.33957       -1.19930       -4.34096
H          2.36072       -2.99435       -4.38537
H          4.32712       -1.29978       -2.74979
H          4.61525       -1.82321       -4.43336
H          6.19949       -3.38928       -4.28414
H          6.06830       -4.69113       -3.07694
H          6.90419       -3.26206       -1.29854
H          6.59290       -1.77672       -2.25259
H          8.16280       -2.46516       -4.51863
H         10.22296       -2.95600       -3.71024
H          9.02299       -1.23243       -2.81536
H         10.75507       -4.78496       -2.44167
H         12.15478       -5.68321       -0.59357
H         11.92306       -4.72842        1.71538
H         10.29578       -2.86713        2.10265
H          8.77003       -0.98476       -1.37915
