23

Br         1.31666       -0.09862        0.71890
Al         3.34718        0.32402       -0.26132
S          4.14492       -1.91025       -0.73377
O          4.19669       -2.80839        0.42624
O          3.36476       -2.31788       -1.91645
C          6.00196       -2.00404       -1.35094
C          6.35948       -1.17576       -2.61219
F          5.72916       -1.64443       -3.70550
F          6.01734        0.11764       -2.43641
F          7.69729       -1.22306       -2.85643
F          6.81095       -1.60949       -0.33789
F          6.24344       -3.31650       -1.62086
S          4.87129        1.28432        1.36777
O          4.57267        0.94221        2.76281
O          6.26266        1.20912        0.89618
C          4.40639        3.20426        1.31531
C          5.28432        4.10265        0.40833
F          6.54316        4.18027        0.87731
F          5.31101        3.63283       -0.85316
F          4.78367        5.37148        0.36393
F          3.11500        3.27688        0.86348
F          4.45142        3.70203        2.57462
H          3.42815        1.21220       -1.56972
