20

Br         0.88126       -0.56550        0.44332
Al         3.17876       -0.03873        0.38069
S          3.44719        0.94043       -1.85039
O          3.40400       -0.01390       -2.95791
O          2.85330        2.25687       -2.07107
F          5.12139        1.29333       -1.72091
C          4.32236       -1.66573        0.38430
C          5.83784       -1.41918        0.42663
C          6.68293       -2.69933        0.50020
C          8.19147       -2.43567        0.52764
H          3.53188        1.18083        1.36374
H          4.06334       -2.28001       -0.49552
H          4.01558       -2.26322        1.26422
H          6.09262       -0.78163        1.29335
H          6.14522       -0.84151       -0.46152
H          6.43410       -3.34003       -0.36322
H          6.38933       -3.27311        1.39701
H          8.51448       -1.90079       -0.37857
H          8.77239       -3.36862        0.59148
H          8.46804       -1.81025        1.39103
