46

C          4.53151        2.78298       -4.30828
C          4.91221        2.03389       -3.02828
C          5.37412        2.95449       -1.89382
C          5.75309        2.21191       -0.60850
C          6.18676        3.12422        0.55030
C          6.54389        2.37884        1.84478
Al         7.08277        3.45654        3.46564
C          5.57911        4.75422        4.10827
C          5.14923        5.76846        3.13718
O          4.09945        5.81377        2.51361
O          6.08780        6.77076        2.87755
C          8.81237        4.51717        3.16148
C          9.29128        5.27346        4.36971
O         10.67379        5.71610        4.23973
C         11.12442        6.39787        5.38652
C         12.62143        6.62225        5.30958
O         12.92590        7.64126        4.36171
C         14.31519        7.78278        4.16304
H          4.20251        2.09709       -5.10351
H          5.38380        3.36119       -4.69705
H          3.71297        3.49451       -4.12063
H          5.71028        1.30459       -3.25139
H          4.05010        1.43907       -2.68034
H          4.57548        3.68342       -1.66898
H          6.23693        3.55194       -2.23987
H          6.56453        1.49244       -0.82540
H          4.89314        1.60259       -0.27481
H          5.37687        3.84838        0.74550
H          7.04869        3.72993        0.21440
H          7.35692        1.65461        1.63656
H          5.68019        1.75398        2.14672
H          7.33920        2.47565        4.76274
H          6.04092        5.21507        4.99592
H          4.72217        4.14471        4.42021
H          6.91829        6.50570        3.31335
H          8.77503        5.18198        2.28188
H          9.54983        3.72866        2.92560
H          9.23038        4.64658        5.28347
H          8.66907        6.17558        4.56360
H         10.91592        5.80574        6.30482
H         10.60957        7.37549        5.50689
H         13.11600        5.67455        5.01908
H         13.00192        6.91630        6.31078
H         14.45956        8.56607        3.40686
H         14.77394        6.84341        3.79717
H         14.83886        8.08287        5.09397
