21

C          1.06235        0.01582       -0.03223
C          2.59442        0.04497       -0.00483
C          3.18067        1.10476        0.94078
N          4.58653        1.11192        0.95028
C          5.06607        2.10175        1.82601
C          6.60078        2.16244        1.87717
C          7.14917        3.23222        2.82776
H          0.66985       -0.75356       -0.71742
H          0.65326        0.98737       -0.35420
H          0.65192       -0.19047        0.96967
H          2.99073        0.23376       -1.01740
H          2.99008       -0.93961        0.29856
H          2.71270        0.92470        1.97112
H          2.71697        2.10872        0.64019
H          4.70346        1.97755        2.90591
H          4.70147        3.15801        1.57185
H          6.96997        2.33661        0.85180
H          6.97218        1.16516        2.16945
H          6.80312        4.23704        2.53539
H          8.25132        3.25208        2.84535
H          6.80307        3.05985        3.85989
