60

C          9.33268       -4.86225        3.12314
C          8.78318       -3.69030        2.30618
C          9.29546       -3.66951        0.86317
C          8.77474       -2.49119        0.03495
C          9.31425       -2.47240       -1.39766
C          8.82243       -1.29063       -2.23854
C          9.35967       -1.31626       -3.67393
C          8.85683       -0.16756       -4.56142
Si         9.31022       -0.35772       -6.40268
C          8.69237       -2.04513       -6.95200
C          7.30720       -2.31046       -6.96278
C          6.81280       -3.59453       -7.20704
C          7.66362       -4.69143       -7.45230
C          9.04277       -4.41154       -7.47215
C          9.54927       -3.12785       -7.22730
In         6.80775       -6.72801       -7.76323
C          5.41282       -6.43373       -9.57302
F          4.41693       -5.47815       -9.38828
F          6.06785       -6.01593      -10.72711
F          4.71717       -7.57201       -9.97653
C          8.40321       -8.15783       -8.49967
C          8.37020       -8.44244      -10.00392
C          9.40218       -9.42783      -10.55762
O          9.52390       -9.72272      -11.72932
O         10.21880       -9.99525       -9.62022
C          8.46976        1.04201       -7.36451
C         11.18574       -0.20375       -6.62486
H          8.95428       -4.85267        4.15529
H         10.43187       -4.83079        3.17001
H          9.05121       -5.82597        2.67297
H          9.04992       -2.73948        2.79867
H          7.68070       -3.72897        2.29943
H          9.01842       -4.61517        0.36499
H         10.39993       -3.64650        0.87177
H          9.04057       -1.54502        0.53973
H          7.67112       -2.52164        0.00924
H          9.03538       -3.41302       -1.90341
H         10.41854       -2.46206       -1.36867
H          9.10819       -0.34190       -1.74935
H          7.71849       -1.29760       -2.26960
H          9.08110       -2.27790       -4.13626
H         10.46358       -1.30697       -3.64295
H          9.21827        0.80464       -4.18137
H          7.75405       -0.12207       -4.50976
H          6.59522       -1.50066       -6.76591
H          5.72827       -3.74105       -7.20409
H          9.75809       -5.21535       -7.67814
H         10.63329       -2.97374       -7.24231
H          5.88087       -7.34465       -6.39554
H          8.24309       -9.07647       -7.90988
H          9.36822       -7.71548       -8.19732
H          8.48737       -7.52096      -10.59552
H          7.38953       -8.83622      -10.31710
H          9.93322       -9.59852       -8.76432
H          7.37482        0.95993       -7.30938
H          8.75000        1.01296       -8.42720
H          8.75397        2.02661       -6.96373
H         11.73231       -0.96376       -6.04911
H         11.53119        0.78468       -6.28646
H         11.47092       -0.31516       -7.68081
