25

N          2.98707        0.34172       -1.47334
C          2.41176        0.20938       -0.11851
C          2.94814        1.36019        0.74773
N          4.36198        1.38700        0.70404
C          4.87668        2.48817        1.41146
C          6.41512        2.53993        1.39200
C          7.02229        2.50025       -0.02098
C          6.46447        3.55532       -0.97712
N          6.73596        4.93408       -0.49828
H          3.11228       -0.58209       -1.89115
H          3.93539        0.70548       -1.26676
H          2.70122       -0.74321        0.37110
H          1.30766        0.24642       -0.16717
H          2.50616        1.23717        1.78573
H          2.47403        2.32230        0.36889
H          4.56505        2.52634        2.50417
H          4.49260        3.49898        1.02381
H          6.79908        1.66963        1.95187
H          6.76005        3.44171        1.93165
H          6.79638        1.51305       -0.45152
H          8.12022        2.60834        0.04023
H          5.38817        3.34983       -1.11654
H          6.95302        3.44809       -1.96079
H          6.21513        5.05678        0.37588
H          6.30447        5.59516       -1.14935
