35

O          7.38614       -0.59595        1.74936
C          6.13698       -0.85951        1.27304
O          5.68468       -1.98275        1.34500
C          5.37768        0.32515        0.70403
C          4.88021        1.32415        1.75261
Nb         5.98945        2.88615        0.69123
C          4.64544        4.09813        2.04196
F          3.29395        3.85816        1.74598
F          4.77792        3.73369        3.39192
F          4.71892        5.47126        2.08290
C          8.12082        2.53547        1.14934
C          8.99196        2.43663        0.04206
C         10.37999        2.29743        0.19971
C         10.94951        2.21875        1.46972
C         10.10188        2.28750        2.58462
C          8.72275        2.44888        2.42913
C         10.72278        2.17505        3.95191
F         11.80610        3.00068        4.09367
F          9.86425        2.48082        4.95718
F         11.18422        0.90964        4.20282
C         11.24846        2.23812       -1.02858
F         11.13416        3.36502       -1.79338
F         12.57383        2.09898       -0.74006
F         10.91711        1.19335       -1.84545
H          7.62106        0.34699        1.60136
H          4.55552       -0.05671        0.08849
H          6.06271        0.82238       -0.06419
H          5.33970        1.19247        2.74319
H          3.79268        1.34736        1.85586
H          5.72206        2.76159       -1.08771
H          5.57084        4.40988       -0.04773
H          6.80789        4.33061        1.25608
H          8.59058        2.49464       -0.97541
H         12.02568        2.11053        1.59264
H          8.10605        2.54148        3.32574
