64

F          4.25168       -1.69657        0.99012
C          3.36910       -0.87717        0.32481
O          3.46257       -0.92499       -0.99349
C          3.23511       -2.24502       -1.62046
B          3.22749       -2.14929       -3.24327
S          5.07960       -1.83180       -3.78047
O          5.55468       -0.48628       -3.44282
O          5.95876       -2.97040       -3.46232
C          5.17725       -1.84327       -5.73622
C          4.37173       -0.77658       -6.52682
F          4.70654        0.47392       -6.16311
F          4.62127       -0.89395       -7.86459
F          3.04378       -0.93771       -6.35200
F          6.49520       -1.65320       -6.03377
F          4.80714       -3.06754       -6.21189
C          2.65876       -3.53482       -3.84081
C          1.43926       -3.54380       -4.54795
C          0.83794       -4.73062       -4.97120
C          1.42823       -5.98413       -4.70917
C          2.65759       -5.98087       -4.02008
C          3.25474       -4.78995       -3.59948
Si         0.59802       -7.56483       -5.28004
C          0.60750       -7.63963       -7.18806
C          2.01310       -7.58111       -7.80099
C          1.98749       -7.65113       -9.31759
C          3.36369       -7.51742      -10.06412
C          4.53507       -8.52762       -9.75891
C          4.37810      -10.08111      -10.02457
C          4.03299      -10.56113      -11.48369
C          4.29198      -12.09552      -11.73763
F          3.69875      -12.85183      -10.79482
F          3.77017      -12.42169      -12.93809
F          5.60571      -12.37753      -11.76106
F          2.72271      -10.33384      -11.73591
F          4.78559       -9.88072      -12.38650
F          5.58652      -10.62422       -9.69361
F          3.44732      -10.57974       -9.17242
F          5.60738       -8.10571      -10.48086
F          4.85379       -8.42364       -8.43792
F          3.13952       -7.56450      -11.41060
F          3.87155       -6.28955       -9.76454
F          1.40508       -8.82464       -9.75028
F          1.22318       -6.62980       -9.83522
C          1.49185       -9.08599       -4.59547
C         -1.21664       -7.61716       -4.74602
F          2.12470       -1.22473        0.81527
F          3.61183        0.38961        0.74226
H          2.24298       -2.59636       -1.29562
H          3.99196       -2.93932       -1.22198
H          2.63335       -1.17081       -3.64729
H          0.95164       -2.58974       -4.76380
H         -0.11283       -4.67484       -5.51215
H          3.16108       -6.92677       -3.79981
H          4.21759       -4.82901       -3.08526
H          0.00509       -6.79563       -7.55867
H          0.09189       -8.55951       -7.50788
H          2.63211       -8.41404       -7.43935
H          2.52716       -6.65114       -7.51494
H          2.54581       -9.12590       -4.90529
H          1.00561      -10.01067       -4.93956
H          1.47334       -9.08551       -3.49631
H         -1.76436       -6.73888       -5.11620
H         -1.29798       -7.61950       -3.64985
H         -1.72137       -8.51657       -5.12866
