40

C          8.87725        4.12253        1.04855
C          7.74199        3.09941        1.14500
C          8.20243        1.73064        1.65574
C          7.08927        0.67909        1.72565
C          7.59176       -0.72568        2.10715
C          6.56987       -1.84408        2.23001
Nb         7.54522       -2.60173        4.05707
C          6.17399       -3.31401        5.67701
C          4.75201       -2.80866        5.39125
C          3.74711       -3.04321        6.53538
C          2.32866       -2.58251        6.20957
N          1.40712       -2.84222        7.33569
S          9.54171       -1.52531        5.15974
H          8.52604        5.08941        0.65802
H          9.67634        3.76328        0.38201
H          9.33198        4.30485        2.03402
H          7.27598        2.97452        0.15208
H          6.94767        3.48964        1.80424
H          8.66003        1.84575        2.65411
H          9.00878        1.35625        0.99981
H          6.58495        0.60973        0.74551
H          6.31478        1.00127        2.44391
H          8.15359       -0.58329        3.08382
H          8.38464       -1.03208        1.40801
H          6.41391       -2.41279        1.31045
H          5.59320       -1.46512        2.60292
H          8.33316       -4.07548        4.56873
H          6.85329       -4.09588        3.42667
H          8.49418       -3.42724        2.83443
H          6.56567       -2.81119        6.58703
H          6.15356       -4.39257        5.87778
H          4.36902       -3.30102        4.47953
H          4.75007       -1.72171        5.16657
H          4.09406       -2.53682        7.45110
H          3.73165       -4.12445        6.76705
H          2.00726       -3.06490        5.26425
H          2.32909       -1.49521        6.02395
H          1.42855       -3.84033        7.55757
H          0.44542       -2.63700        7.05770
H          9.91267       -2.61618        5.86675
