25

S         -0.10243       -2.75536       -0.10022
B          0.98937       -1.26576       -0.75746
C          1.58592       -1.54782       -2.23999
C          2.51081       -0.43848       -2.75932
C          3.24142       -0.74313       -4.07542
C          2.32622       -0.82762       -5.29655
N          3.11493       -1.07534       -6.50150
C          2.55861       -1.07927       -7.76333
N          1.31080       -1.01259       -8.08998
N          3.52946       -1.16192       -8.78401
Cl         2.44344       -1.15292        0.51526
H         -1.15295       -2.54725       -0.93221
H          0.36353       -0.21923       -0.68293
H          0.72971       -1.68502       -2.92797
H          2.13301       -2.50911       -2.23880
H          3.27055       -0.23932       -1.98659
H          1.94123        0.50259       -2.86879
H          3.78861       -1.69651       -3.97591
H          3.99895        0.04121       -4.27039
H          1.74984        0.11386       -5.39020
H          1.59896       -1.64424       -5.16925
H          4.07172       -0.73533       -6.45501
H          0.73067       -0.83510       -7.26575
H          4.24631       -1.86119       -8.60038
H          3.07087       -1.33125       -9.67591
