19

Ga         0.95036       -0.05402       -0.15594
C         -0.13754       -0.97005        1.29977
N         -1.55554       -0.54008        1.18780
C          2.99379       -0.08354        0.00758
C          3.54489        0.86390       -1.04735
C          5.05003        0.95356       -1.23942
O          5.91515        0.31706       -0.68503
O          5.43687        1.89479       -2.19231
H          0.61857       -0.61358       -1.64033
H          0.49408        1.51969       -0.07570
H          0.31239       -0.71651        2.28129
H         -0.08989       -2.06786        1.19821
H         -1.58145        0.43611        0.88173
H         -2.03345       -0.56604        2.09203
H          3.37722       -1.10055       -0.16648
H          3.33289        0.22611        1.00832
H          3.18360        1.89447       -0.85834
H          3.12392        0.60977       -2.04216
H          4.62340        2.30877       -2.53168
