35

N          2.40963        0.43553       -1.64377
Ta         4.26334       -0.01864       -1.14480
C          4.93421        1.80241       -0.00904
C          6.08390        1.86558        0.81546
C          6.48606        3.03194        1.47289
C          5.74399        4.21657        1.36236
C          4.59345        4.18588        0.57444
C          4.20366        3.01155       -0.09263
C          3.73362        5.41093        0.45904
F          4.33503        6.54163        0.93882
F          3.37685        5.68745       -0.83315
F          2.55140        5.29422        1.14879
C          7.75112        3.04780        2.27883
F          8.08822        1.82526        2.77701
F          8.83681        3.46694        1.54482
F          7.68770        3.89816        3.35263
C          4.17535       -2.27442       -0.84999
C          3.39144       -2.83975        0.33699
S          1.59269       -2.54059        0.11229
C          0.95583       -3.20194        1.67757
H          2.09760        0.96358       -2.45592
H          1.61909        0.02515       -1.14336
H          5.00800       -0.84460       -2.54859
H          5.52238        0.90783       -2.00822
H          4.54141       -0.43477        0.57091
H          6.68179        0.96222        0.96038
H          6.04912        5.12277        1.88178
H          3.29310        3.04908       -0.69713
H          5.23422       -2.56901       -0.71743
H          3.84767       -2.78079       -1.77523
H          3.69311       -2.34076        1.27184
H          3.50200       -3.93422        0.46346
H         -0.13998       -3.13907        1.64406
H          1.31960       -2.61988        2.53612
H          1.24398       -4.25596        1.80470
