42

N          1.28093        0.13953        0.68745
C          2.64011        0.48792        0.21616
C          3.10413       -0.45094       -0.89874
C          4.50336       -0.12879       -1.44582
Al         5.18734       -1.56353       -2.69240
C          4.04176       -1.80792       -4.39056
C          3.51160       -3.09680       -4.61861
C          2.73836       -3.42096       -5.73778
C          2.44987       -2.44376       -6.69545
C          2.92373       -1.14834       -6.49965
C          3.70007       -0.83565       -5.36302
C          4.18427        0.56542       -5.18403
O          5.19780        0.89976       -4.60287
O          3.39907        1.55419       -5.73224
C          7.16692       -1.63060       -3.26493
C          7.44901       -2.85668       -3.91334
C          8.73603       -3.25681       -4.27914
C          9.83138       -2.44231       -3.96913
C          9.60856       -1.23648       -3.31250
C          8.29987       -0.82357       -2.99108
C          8.22089        0.52503       -2.32896
O          9.09280        0.96000       -1.59066
O          7.14943        1.29391       -2.61756
H          1.04535        0.68645        1.51819
H          1.27821       -0.83901        0.98598
H          3.39965        0.47088        1.02393
H          2.60935        1.52210       -0.16552
H          2.35270       -0.42301       -1.70711
H          3.08293       -1.48699       -0.50839
H          5.21631       -0.07111       -0.60153
H          4.50023        0.87953       -1.89129
H          4.97445       -3.02402       -1.95739
H          3.72350       -3.87421       -3.87814
H          2.36547       -4.44005       -5.87200
H          1.87102       -2.68792       -7.58822
H          2.72940       -0.39612       -7.27212
H          2.58224        1.13457       -6.05596
H          6.62056       -3.54043       -4.12741
H          8.88869       -4.21060       -4.79203
H         10.84730       -2.74782       -4.22997
H         10.43917       -0.58449       -3.03526
H          6.55764        0.85697       -3.27132
