22

N          2.51525        1.53318       -1.05570
C          2.56869        0.38524       -0.13016
C          3.02851       -0.89453       -0.83688
C          4.51208       -0.96089       -1.24828
C          4.89683       -2.29364       -1.90064
In         7.08031       -2.63543       -2.30714
S          8.39864       -1.89004       -0.20742
N          7.57256       -1.32464       -3.95579
H          2.14796        2.35755       -0.57768
H          1.86120        1.32533       -1.81361
H          1.59407        0.18932        0.36585
H          3.28507        0.63814        0.66947
H          2.39212       -1.05571       -1.72848
H          2.81753       -1.74621       -0.16725
H          5.12611       -0.79257       -0.34480
H          4.73553       -0.11894       -1.92411
H          4.37086       -2.40737       -2.86498
H          4.56161       -3.12795       -1.26027
H          7.63690       -4.29194       -2.59747
H          8.01889       -0.59497       -0.32245
H          8.57124       -1.09688       -3.91339
H          7.10940       -0.42529       -3.78460
