37

C          2.80143       -3.33247       -1.07353
C          2.15824       -2.40965       -2.12478
Al         2.77448       -0.47505       -2.13407
C          2.22264        0.50856       -0.41583
O          2.87516       -0.05496        0.81512
C          2.59134        0.52015        1.96393
F          2.93683        1.85525        2.04330
F          1.25598        0.48247        2.31556
F          3.26937       -0.11089        2.96605
C          4.78319       -0.31832       -2.43831
C          5.20314       -0.65416       -3.87500
C          6.71097       -0.55096       -4.15470
C          7.08289       -0.84291       -5.60816
N          8.52785       -0.76839       -5.80327
C          9.11691       -0.94806       -7.03772
N          8.55880       -1.30708       -8.14606
N         10.50269       -0.68981       -7.02201
H          2.44900       -4.38094       -1.12160
H          2.60406       -2.97477       -0.05056
H          3.89845       -3.36295       -1.18208
H          1.05886       -2.42281       -2.00088
H          2.33045       -2.83013       -3.13434
H          1.98064        0.38435       -3.30317
H          1.13416        0.45849       -0.24278
H          2.49730        1.57655       -0.45301
H          5.33375       -0.97038       -1.73374
H          5.10593        0.71361       -2.20049
H          4.66691        0.00898       -4.57823
H          4.87643       -1.67906       -4.13242
H          7.25508       -1.24739       -3.49401
H          7.05457        0.46618       -3.88995
H          6.55652       -0.13272       -6.27550
H          6.74334       -1.85526       -5.88441
H          9.01007       -0.12804       -5.17896
H          7.54066       -1.33590       -8.04712
H         10.98128       -1.10423       -6.22478
H         10.91632       -0.99339       -7.90035
