40

N          0.73729       -1.34440       -0.96989
C          2.19651       -1.51930       -1.11471
C          2.83920       -1.94244        0.20334
C          4.35639       -2.15293        0.09554
C          5.05221       -2.51532        1.41694
Al         7.02114       -2.83682        1.22816
C          8.05986       -1.10301        0.63619
C          7.74918        0.33860        1.13422
C          7.99076        0.59466        2.65782
C          7.50644        1.98720        3.20663
F          8.06652        3.01632        2.53814
F          6.16725        2.11509        3.14173
F          7.86878        2.09288        4.50787
F          7.33085       -0.34748        3.38402
F          9.32006        0.51486        2.93404
F          8.48707        1.27857        0.44994
F          6.42593        0.60749        0.88014
F          9.44584       -1.24530        0.75759
F          7.82692       -0.99261       -0.75238
C          7.82522       -3.49879        3.06454
C          8.06880       -5.02794        3.14899
C          8.54703       -5.66012        4.49983
F          7.64015       -5.49976        5.48553
F          8.73897       -7.00021        4.34190
F          9.71863       -5.13176        4.91033
F          6.89510       -5.66946        2.83108
F          9.01089       -5.37923        2.22115
F          9.04745       -2.89855        3.38905
F          6.97044       -3.19272        4.13901
H          0.34075       -0.97074       -1.83418
H          0.55575       -0.64082       -0.25033
H          2.71130       -0.60933       -1.48399
H          2.36448       -2.30383       -1.87166
H          2.35352       -2.86428        0.56497
H          2.63913       -1.16748        0.96702
H          4.80619       -1.23603       -0.32373
H          4.54914       -2.94222       -0.65344
H          4.59926       -3.43552        1.83035
H          4.85595       -1.72944        2.16786
H          7.43870       -3.89226        0.07634
