65

C          8.19079       -3.69669       -4.60520
C          7.73826       -2.88009       -3.39262
C          8.52703       -3.19957       -2.11935
C          8.08185       -2.38957       -0.89832
C          8.87065       -2.70889        0.37513
C          8.42396       -1.90026        1.59667
C          9.21408       -2.22090        2.87187
C          8.74799       -1.43511        4.10569
Si         9.69021       -1.76487        5.73172
C          8.93276       -0.75555        7.11253
C          8.89390        0.65500        7.03282
C          8.32176        1.42050        8.05146
C          7.76956        0.83085        9.19711
C          7.80413       -0.56740        9.27640
C          8.36873       -1.34849        8.26113
P          6.89529        1.94886       10.53675
C          5.84945        3.14493       11.67732
C          5.85271        4.58082       11.16925
C          4.76273        5.48014       11.76832
C          8.18263        1.46649       11.94074
C          9.31886        2.47294       12.10267
C          9.60526       -3.62007        6.11976
C         11.51160       -1.29289        5.47175
H          7.61255       -3.44284       -5.50520
H          8.07057       -4.77567       -4.42442
H          9.25348       -3.51804       -4.82975
H          6.66505       -3.05745       -3.20762
H          7.83178       -1.80375       -3.61573
H          9.60148       -3.02080       -2.30435
H          8.43534       -4.27755       -1.89580
H          7.00789       -2.56957       -0.71466
H          8.17249       -1.31218       -1.12242
H          9.94547       -2.53018        0.19222
H          8.77811       -3.78686        0.59893
H          7.35041       -2.08053        1.78309
H          8.51468       -0.82163        1.37692
H         10.28463       -2.02591        2.68233
H          9.13842       -3.30485        3.06991
H          7.68131       -1.64182        4.30090
H          8.80161       -0.35091        3.90336
H          9.31626        1.16287        6.15697
H          8.29280        2.51411        7.96880
H          7.36672       -1.05516       10.15579
H          8.37402       -2.43888        8.36749
H          7.76065        3.08595       10.08557
H          6.06425        0.77050       10.94374
H          5.91472        2.30234        9.44237
H          6.18535        3.10396       12.72853
H          4.82737        2.72750       11.63808
H          5.73811        4.55608       10.06851
H          6.83908        5.03860       11.35506
H          3.76023        5.07304       11.56038
H          4.79991        6.50565       11.36153
H          4.86294        5.55271       12.86332
H          8.58797        0.46878       11.70753
H          7.60430        1.37006       12.87467
H          9.89154        2.57334       11.16675
H         10.03301        2.19819       12.89996
H          8.93036        3.47729       12.33989
H          8.56487       -3.95820        6.23143
H         10.13329       -3.85179        7.05593
H         10.06948       -4.21370        5.31866
H         11.61156       -0.21492        5.27768
H         11.96486       -1.83459        4.62786
H         12.09741       -1.51872        6.37446
