31

C          1.08888       -0.00925        0.31606
B          2.59102        0.51028       -0.10005
C          3.48494        0.58238        1.27246
C          4.95829        1.10958        1.25143
C          5.21561        2.50683        0.59460
F          5.06358        2.48065       -0.74119
F          4.41841        3.46620        1.10413
F          6.50732        2.88684        0.83782
F          5.45620        1.21148        2.53517
F          5.77235        0.22739        0.58862
F          2.86991        1.38622        2.25088
F          3.62998       -0.67392        1.90516
C          3.28782       -0.44199       -1.24802
C          2.52773       -0.43249       -2.58075
C          3.16655       -1.27924       -3.68928
C          2.41244       -1.21583       -5.01412
N          3.05799       -2.05647       -6.04523
H          0.63209        0.59799        1.11468
H          1.08486       -1.05785        0.66661
H          0.40000        0.04037       -0.54464
H          2.53226        1.67835       -0.50751
H          3.35495       -1.48917       -0.89042
H          4.32917       -0.13662       -1.45828
H          2.43845        0.61207       -2.93244
H          1.49228       -0.78284       -2.42291
H          3.23959       -2.33168       -3.36702
H          4.20575       -0.93503       -3.85183
H          2.31712       -0.15337       -5.31758
H          1.38662       -1.59475       -4.86980
H          4.03035       -1.75858       -6.15322
H          2.61419       -1.90180       -6.95263
