49

C          0.84298       -0.17286       -0.33392
C          2.37113       -0.16832       -0.23051
C          2.90676        0.77388        0.85331
C          4.43414        0.77697        0.97412
C          4.96540        1.69459        2.07984
C          6.49106        1.68023        2.22184
C          7.00907        2.58291        3.34858
C          8.53403        2.57605        3.52122
Si         9.16562        3.76119        4.89046
C          8.55969        5.48582        4.66116
C          9.31395        6.49199        3.98321
C          8.82283        7.75827        3.74705
C          7.49968        8.17543        4.15930
C          6.73908        7.14400        4.83929
C          7.25856        5.87838        5.06864
N          7.10218        9.41873        3.89735
C          5.77669        9.77114        4.33449
C          8.59237        3.02256        6.55025
C         11.06408        3.65198        4.84631
H          0.48921       -0.86193       -1.11454
H          0.45703        0.82917       -0.57496
H          0.38074       -0.48116        0.61624
H          2.80563        0.11439       -1.20466
H          2.72926       -1.19255       -0.02835
H          2.46566        0.49408        1.82681
H          2.55441        1.80073        0.65037
H          4.87596        1.07643        0.00691
H          4.78568       -0.25460        1.15745
H          4.50998        1.40191        3.04306
H          4.62807        2.72901        1.89299
H          6.95162        1.99273        1.26740
H          6.83232        0.64293        2.39523
H          6.52538        2.27626        4.29363
H          6.67355        3.61798        3.16827
H          9.01328        2.88682        2.57556
H          8.89276        1.54968        3.72664
H         10.32859        6.26098        3.63868
H          9.43354        8.50636        3.23375
H          5.73019        7.36807        5.19041
H          6.62119        5.15532        5.59312
H          5.56806       10.82139        4.06835
H          5.61959        9.68373        5.43807
H          4.96471        9.15724        3.87196
H          7.49668        3.03423        6.64111
H          8.99728        3.61039        7.38627
H          8.92988        1.98040        6.66118
H         11.46020        3.99707        3.88003
H         11.40160        2.61528        4.99697
H         11.50903        4.27869        5.63218
