47

N          6.09489       -1.21948        1.75458
C          5.19198       -0.18943        1.20861
C          5.55474        0.15911       -0.23974
C          4.69280        1.25564       -0.87047
In         5.44170        1.91356       -2.87982
C          4.13383        3.75630       -3.61225
C          3.11540        4.49431       -2.69828
C          3.73768        5.49399       -1.66068
C          2.81616        5.86346       -0.44016
F          1.59422        6.27082       -0.84012
F          2.67084        4.82970        0.40831
F          3.38625        6.88381        0.25150
F          4.88069        4.98278       -1.12602
F          4.04444        6.66832       -2.27991
F          2.19390        5.23422       -3.41445
F          2.39314        3.55399       -2.00228
F          4.92845        4.78200       -4.16911
F          3.33885        3.30761       -4.67740
C          7.57565        2.67566       -2.87361
C          7.94830        3.91048       -2.04171
C          7.72358        3.77291       -0.52912
C          8.63714        2.75079        0.14799
N          8.33984        2.67516        1.56984
C          8.59290        1.59411        2.37254
N          9.20409        0.49294        2.06890
N          8.11392        1.76379        3.68781
H          5.84519       -1.43383        2.72142
H          7.05444       -0.85786        1.78397
H          5.18634        0.75376        1.79757
H          4.16122       -0.58195        1.24142
H          5.50638       -0.76607       -0.83840
H          6.61966        0.45674       -0.24685
H          4.66000        2.13936       -0.21028
H          3.65150        0.91155       -0.97892
H          5.21037        0.73302       -4.18492
H          7.78724        2.88497       -3.93420
H          8.22035        1.81905       -2.61108
H          7.35645        4.77251       -2.38730
H          9.00964        4.19892       -2.20008
H          6.68144        3.47779       -0.33612
H          7.87838        4.75502       -0.04383
H          9.69922        3.01294       -0.02787
H          8.47010        1.75513       -0.28994
H          8.03927        3.53137        2.02258
H          9.61307        0.54912        1.13252
H          7.15013        2.09178        3.72350
H          8.21734        0.88858        4.19628
