39

F          7.48088        4.78544       -0.13798
C          6.52584        5.32027       -0.94980
C          5.18995        4.61960       -0.81766
C          4.56940        4.69374        0.58295
Si         2.89928        3.77656        0.73476
C          2.18933        3.98200        2.45963
C          1.55908        5.18353        2.84440
C          0.97979        5.33123        4.10739
C          1.00302        4.28764        5.05270
C          1.65692        3.09871        4.67824
C          2.23266        2.94605        3.41224
Ga         0.08847        4.44889        6.82492
S          0.84272        6.64298        7.59814
O          2.19723        6.75290        8.13125
O          0.39396        7.68723        6.67375
F         -0.13104        6.89241        8.95971
C          0.89379        3.09448        8.15860
F          0.47817        1.79875        7.83783
F          2.26824        3.02357        8.16762
F          0.52957        3.26225        9.47274
C          1.70767        4.50425       -0.54569
C          3.18876        1.94689        0.34051
F          6.45465        6.64775       -0.65440
F          7.01044        5.23207       -2.22876
H          5.36346        3.57737       -1.12696
H          4.53158        5.07490       -1.57276
H          4.41452        5.74474        0.87310
H          5.26071        4.26730        1.32677
H          1.50894        6.02414        2.14471
H          0.50838        6.28306        4.36532
H          1.72105        2.26559        5.38331
H          2.71779        1.99665        3.16659
H         -1.47002        4.55635        6.91205
H          1.54016        5.57676       -0.37076
H          0.73071        4.00438       -0.48402
H          2.08250        4.38472       -1.57288
H          3.93422        1.49920        1.01335
H          3.54615        1.81178       -0.69098
H          2.25684        1.37394        0.44686
