38

F          6.46324       -2.18650       -2.07945
C          5.19477       -2.00251       -2.59964
O          4.21460       -2.22873       -1.75216
C          4.16729       -3.60054       -1.11635
N          2.89527       -3.72261       -0.56435
C          2.57959       -4.89028       -0.01017
C          3.44784       -6.04338        0.10140
C          3.02258       -7.22875        0.67483
C          1.71406       -7.37560        1.18324
C          0.84285       -6.25634        1.10111
C          1.25486       -5.07118        0.53556
C          1.28248       -8.65330        1.77962
C          1.72944       -8.98022        3.25813
C          1.26105       -8.05443        4.44395
C         -0.26397       -7.95969        4.87085
C         -1.03018       -9.28654        5.23656
C         -2.35962       -9.05959        6.05422
F         -3.15507       -8.15005        5.46091
F         -3.02854      -10.23261        6.11587
F         -2.10792       -8.66122        7.31473
F         -1.37585       -9.93963        4.10314
F         -0.24585      -10.09478        5.99841
F         -0.27167       -7.17388        5.99451
F         -0.96715       -7.31389        3.91295
F          1.93465       -8.48516        5.55703
F          1.64447       -6.77819        4.19774
F          1.35289      -10.25841        3.60410
F          3.09476       -8.94405        3.29812
F         -0.09874       -8.79928        1.78046
F          1.79404       -9.75158        1.07625
F          5.13434       -0.71085       -3.02568
F          5.16774       -2.78766       -3.73632
H          5.00988       -3.59991       -0.38994
H          4.40375       -4.31889       -1.93211
H          4.46779       -5.98748       -0.28354
H          3.71152       -8.07483        0.72171
H         -0.17766       -6.34427        1.47738
H          0.56964       -4.22420        0.46516
