66

C          3.44367       -2.38529       -0.47476
C          3.56235       -0.86034       -0.33047
C          4.22071       -0.42731        0.98376
In         4.51333        1.75078        1.26749
S          5.96203        2.38695       -0.99887
O          5.65614        1.45589       -2.11124
O          5.92718        3.83278       -1.30970
C          7.91882        2.15509       -0.75202
C          8.44137        0.70390       -0.64699
F          8.32334        0.04485       -1.81439
F          9.76128        0.67091       -0.29387
F          7.75687        0.02309        0.30297
F          8.55668        2.75542       -1.79576
F          8.27156        2.80596        0.39880
C          5.87542        2.15804        2.97261
C          6.47180        1.08764        3.66786
C          7.28144        1.29405        4.78899
C          7.54361        2.59250        5.27232
C          6.96533        3.66829        4.56961
C          6.15048        3.45172        3.45211
Si         8.55344        2.83529        6.83569
C         10.20694        1.88688        6.73339
C         11.18381        2.40401        5.66873
C         12.51030        1.66326        5.69929
C         13.57735        2.04925        4.61175
C         14.09843        3.53329        4.49900
C         14.85584        4.23950        5.69709
C         16.17022        3.57314        6.25157
C         17.05604        4.53292        7.13528
F         17.64124        5.48780        6.39271
F         16.32342        5.11718        8.10214
F         18.02640        3.79929        7.71837
F         15.84569        2.51014        7.02445
F         16.94999        3.15373        5.22198
F         15.19487        5.47537        5.22532
F         13.98786        4.40775        6.72641
F         14.93188        3.56998        3.42513
F         13.03224        4.33894        4.22885
F         14.67594        1.25482        4.77497
F         13.03492        1.77282        3.39291
F         13.12294        1.79763        6.92815
F         12.31308        0.31373        5.51335
C          8.91480        4.66788        7.13919
C          7.63634        2.12531        8.33181
H          2.97027       -2.67252       -1.42749
H          2.84576       -2.81829        0.34342
H          4.43757       -2.85805       -0.44051
H          2.55601       -0.41404       -0.40957
H          4.13438       -0.46006       -1.18182
H          5.21566       -0.89263        1.07611
H          3.63071       -0.78615        1.84587
H          3.24307        2.93205        1.00541
H          6.30340        0.06015        3.33104
H          7.71227        0.42292        5.29567
H          7.14739        4.69566        4.89969
H          5.72248        4.32042        2.94338
H          9.98299        0.82459        6.54939
H         10.67809        1.93695        7.72847
H         11.39564        3.47184        5.81857
H         10.76138        2.29753        4.65838
H          9.43850        5.13188        6.29135
H          9.53930        4.79721        8.03544
H          7.98426        5.23107        7.29804
H          7.42267        1.05649        8.18794
H          6.67402        2.63738        8.47308
H          8.22233        2.23439        9.25646
