47

C          6.12748       -3.38071       -2.21529
C          5.29215       -2.10488       -2.29551
Nb         3.34135       -1.83641       -1.37394
C          1.83385       -3.05393       -2.38694
C          2.22615       -4.16698       -3.16449
C          1.30827       -4.92823       -3.89607
C         -0.06378       -4.61013       -3.90277
C         -0.46535       -3.49472       -3.13260
C          0.45283       -2.74503       -2.39755
Si        -1.30554       -5.62455       -4.86775
C         -2.23620       -6.80840       -3.68810
C         -3.21396       -7.75665       -4.39206
C         -3.96910       -8.68201       -3.46145
F         -4.75365       -8.00826       -2.57432
F         -4.80192       -9.51966       -4.15703
F         -3.14327       -9.48140       -2.72970
C         -2.58259       -4.50643       -5.71006
C         -0.44205       -6.67158       -6.19097
C          3.05894       -0.55877        0.50952
C          1.74359        0.12526        0.66437
O          1.01389        0.04225        1.64359
O          1.33646        0.88841       -0.40222
H          7.04916       -3.34177       -2.82487
H          5.56045       -4.26139       -2.55978
H          6.42012       -3.58084       -1.17470
H          5.04350       -1.86040       -3.35605
H          5.85903       -1.23533       -1.90715
H          4.35589       -2.48854       -0.09352
H          2.59613       -2.89460       -0.18625
H          2.94308       -0.10195       -1.94341
H          3.28144       -4.46185       -3.20609
H          1.67538       -5.78004       -4.47795
H         -1.52080       -3.20363       -3.10403
H          0.08201       -1.89882       -1.81052
H         -2.76942       -6.19712       -2.94289
H         -1.48451       -7.38720       -3.12943
H         -2.69314       -8.40708       -5.11093
H         -3.98033       -7.20201       -4.95504
H         -3.10767       -3.87645       -4.97802
H         -3.33943       -5.08641       -6.25902
H         -2.08833       -3.83626       -6.42749
H          0.24424       -7.40596       -5.74512
H          0.14647       -6.03366       -6.86536
H         -1.16955       -7.22292       -6.80470
H          3.84394        0.18954        0.29104
H          3.28720       -1.08691        1.43657
H          1.97282        0.65524       -1.14172
