47

O          1.37687        1.58293       -0.40932
C          2.52466        0.86355       -0.39501
O          2.86220        0.24439       -1.38651
C          3.39567        0.96723        0.83559
C          4.68344        1.46804        0.56221
C          5.59579        1.70318        1.58480
C          5.22560        1.41068        2.90225
C          3.97031        0.86839        3.16190
C          3.00512        0.61372        2.15606
B          1.66381       -0.21671        2.66692
C          0.91200        0.40294        3.99434
C          0.84098       -0.45635        5.11402
C          0.16503       -0.13658        6.29126
C         -0.50637        1.08528        6.40198
C         -0.48300        1.95930        5.32242
C          0.22184        1.64017        4.14526
C          0.13629        2.69806        3.08604
O         -0.76892        3.50463        2.99209
O          1.17525        2.75895        2.19995
C          0.60788       -0.70244        1.53021
C         -0.71970       -0.26080        1.42635
C         -1.59208       -0.75071        0.44344
C         -1.16793       -1.71141       -0.47041
C          0.14600       -2.18333       -0.37252
C          1.00719       -1.69343        0.60888
C          0.58772       -3.26965       -1.31189
F          0.05439       -4.49251       -0.96455
F          0.18135       -3.04696       -2.59785
F          1.93182       -3.44038       -1.34587
C         -2.99002       -0.20216        0.36796
F         -3.60965       -0.19117        1.58566
F         -3.02061        1.08636       -0.08435
F         -3.79874       -0.91935       -0.46923
H          1.23720        2.04739        0.44806
H          4.94857        1.67893       -0.47530
H          6.58237        2.11089        1.35748
H          5.92316        1.59137        3.72316
H          3.70967        0.60711        4.19074
H          2.18470       -1.26206        3.06176
H          1.34074       -1.42377        5.03413
H          0.15585       -0.84553        7.12273
H         -1.04431        1.34862        7.31452
H         -1.01195        2.91255        5.35788
H          1.84973        2.06799        2.43818
H         -1.10142        0.48126        2.12988
H         -1.84235       -2.09025       -1.23610
H          2.02414       -2.08413        0.66210
