43

N          1.63137        1.02680        0.07261
C          2.32811       -0.03565        0.61614
O          2.27779       -0.27517        1.82284
C          3.12612       -0.83867       -0.39276
C          4.48581       -0.17498       -0.72377
B          5.33347       -0.89123       -1.93034
C          4.59773       -0.80345       -3.40884
C          4.04982        0.53941       -4.01947
C          5.06390        1.72012       -4.20432
C          4.55297        2.90494       -5.10781
F          4.49131        2.55557       -6.40625
F          3.33529        3.34027       -4.72078
F          5.41742        3.94138       -5.00122
F          5.35151        2.26215       -2.98945
F          6.21698        1.28082       -4.77260
F          3.49629        0.30232       -5.25661
F          3.03501        1.01380       -3.22098
F          5.39061       -1.33816       -4.43075
F          3.43768       -1.59755       -3.42051
C          6.89605       -0.42612       -1.98275
C          7.84487       -1.15918       -2.72842
C          9.20183       -0.82441       -2.74396
C          9.68229        0.25689       -1.99594
C          8.76805        0.98820       -1.23969
C          7.40473        0.65275       -1.23834
C          9.22918        2.17500       -0.44143
F         10.58818        2.24844       -0.32762
F          8.83068        3.36312       -0.99689
F          8.73339        2.17353        0.83103
C         10.17909       -1.66778       -3.51323
F          9.62159       -2.28382       -4.58992
F         11.24225       -0.94502       -3.98250
F         10.72212       -2.66748       -2.74231
H          1.27675        1.72141        0.72047
H          1.84925        1.33252       -0.86893
H          2.52989       -0.96288       -1.30851
H          3.29623       -1.83734        0.02990
H          5.09553       -0.20867        0.19596
H          4.31926        0.90027       -0.91801
H          5.34725       -2.11108       -1.75971
H          7.50546       -2.01576       -3.31100
H         10.73944        0.51623       -2.00200
H          6.72341        1.25217       -0.63156
