25

C          0.84046       -0.18369       -0.15022
O          2.23455        0.02251       -0.21371
C          2.86461       -0.87430       -1.12853
C          4.36488       -0.61900       -1.13523
O          4.92390       -1.49734       -2.08213
C          6.38628       -1.43563       -2.11945
C          6.95038       -2.38140       -3.13841
Al         8.97559       -2.37457       -3.29080
Br         9.83873       -3.23820       -1.17836
C          9.59083       -3.59570       -4.75980
H          0.43343        0.53665        0.57233
H          0.59095       -1.20967        0.18669
H          0.35467       -0.01876       -1.13288
H          2.45888       -0.73127       -2.14928
H          2.66827       -1.92376       -0.83486
H          4.77962       -0.79229       -0.12020
H          4.56387        0.44415       -1.39033
H          6.75690       -1.67097       -1.10281
H          6.67204       -0.38739       -2.34096
H          6.55559       -2.13107       -4.13998
H          6.63025       -3.41264       -2.91134
H          9.55044       -0.84994       -3.44285
H          9.21058       -4.62239       -4.63488
H         10.69044       -3.65720       -4.80030
H          9.24648       -3.23371       -5.74442
