25

O          1.05191        0.05305        0.46334
C          2.22715       -0.19455        0.09217
O          2.73998       -1.13699       -0.51035
C          3.19741        1.05271        0.48791
C          3.00354        2.25459       -0.47848
C          1.56156        2.86854       -0.71062
C          1.59177        4.28860       -1.41727
C          0.21002        4.72414       -2.03646
F         -0.79509        4.60392       -1.14766
F          0.29132        6.02792       -2.40041
F         -0.09410        4.01236       -3.13568
F          1.92467        5.24653       -0.51174
F          2.48952        4.32197       -2.43687
F          0.82187        2.05274       -1.49904
F          0.90837        3.06244        0.46667
F          3.79784        3.32282       -0.13012
F          3.39569        1.86160       -1.73715
S          3.13117        1.41240        2.36874
O          3.58364        0.17490        2.98896
O          3.83609        2.65796        2.65333
C          1.42283        1.62304        2.89536
Br         5.12803        0.60192        0.30493
H          0.80736        0.91045        2.33494
H          1.11766        2.65823        2.73030
H          1.47280        1.39043        3.96635
