8

O          0.87333        0.17597        0.12149
C          2.29272        0.12818       -0.12061
C          2.91086        1.03400        0.89778
F          2.58195        0.87409        2.27413
F          4.28375        0.95587        0.89395
F          2.59567        2.35281        0.65075
F          2.71188       -1.21439        0.34341
H          0.49985        0.12335       -0.76501
