38

N          7.24277        1.16916       -6.55431
C          6.55686        0.12323       -5.88804
N          5.52362       -0.50425       -6.35201
N          7.02959       -0.12087       -4.62701
C          6.55545       -1.21941       -3.78970
C          7.05311       -1.02712       -2.35665
C          6.70315       -2.18010       -1.40214
C          7.38552       -3.54152       -1.67736
Ta         9.50995       -3.87545       -1.06489
S         11.12857       -4.55194        0.69795
O         12.17063       -5.57807        0.86470
O         11.54691       -3.23435        0.04826
C         10.98392       -3.90772        2.54533
C         10.21407       -4.86092        3.49560
F         10.81753       -6.06266        3.58771
F         10.14339       -4.34230        4.75616
F          8.94920       -5.05079        3.06319
F         12.24858       -3.75844        3.03825
F         10.37141       -2.69490        2.59657
C         10.32155       -2.44944       -2.49643
H          7.13456        1.11101       -7.56230
H          8.22751        1.25791       -6.30924
H          5.28298       -0.15467       -7.28338
H          7.93209        0.26612       -4.37559
H          6.89437       -2.18742       -4.19614
H          5.45657       -1.22523       -3.83181
H          6.62602       -0.08614       -1.96932
H          8.14747       -0.89150       -2.37720
H          5.60011       -2.29277       -1.41199
H          6.95276       -1.85103       -0.37978
H          7.17916       -3.88426       -2.70743
H          6.87925       -4.30222       -1.05005
H          8.89577       -3.34972        0.53006
H          8.84419       -5.42212       -1.62414
H         10.72149       -5.13331       -1.43678
H         10.25562       -1.42710       -2.08157
H          9.80861       -2.47332       -3.47137
H         11.38986       -2.67388       -2.63762
