18

Ta         1.28093        0.86081       -0.03829
C          0.17341        0.34380       -1.87290
C         -1.16044        0.94846       -2.26077
N         -1.67620        0.40847       -3.55540
Cl         0.11276       -0.44781        1.59569
C          3.02339       -0.44142       -0.39220
H          1.05394        2.14404        1.17716
H          0.89978        2.41230       -0.82555
H          2.69487        1.93969       -0.01029
H          0.09061       -0.76393       -1.86499
H          0.93488        0.59908       -2.64383
H         -1.05547        2.04857       -2.27205
H         -1.91915        0.70581       -1.49723
H         -0.94584        0.53847       -4.26099
H         -2.47034        0.97389       -3.87118
H          2.65693       -1.47307       -0.56965
H          3.70726       -0.47129        0.47202
H          3.62294       -0.13416       -1.26443
