34

C          0.86559        0.20691       -0.00977
C          2.38500        0.11361       -0.17800
C          2.98106       -0.85558        0.85501
C          4.50336       -1.06992        0.98657
S          5.33354       -1.47002       -0.64121
O          5.12819       -0.39522       -1.60189
O          6.67086       -1.98115       -0.41104
C          4.35119       -2.97285       -1.53151
C          5.13031       -4.32823       -1.72360
C          5.42044       -5.26937       -0.50035
F          4.27741       -5.69719        0.05430
F          6.07634       -6.36476       -0.99049
F          6.19914       -4.70337        0.41509
F          4.36476       -5.08039       -2.58628
F          6.30787       -4.06778       -2.34576
F          3.12631       -3.22558       -1.03033
F          4.18400       -2.49540       -2.79718
C          5.23846        0.17752        1.52753
C          4.68346        0.75162        2.90440
F          4.34533       -0.18018        3.80458
F          5.62621        1.54954        3.45985
F          3.58429        1.52880        2.69301
F          6.57080       -0.01809        1.68815
F          5.13317        1.27967        0.67538
C          4.76661       -2.45244        1.97283
O          3.90691       -3.32093        1.74447
O          5.73602       -2.37968        2.72875
H          0.42146        0.88837       -0.74996
H          0.59644        0.57879        0.99128
H          0.38849       -0.77769       -0.13328
H          2.82994        1.11354       -0.07946
H          2.62298       -0.21982       -1.19809
H          2.56089       -1.86085        0.73144
H          2.64047       -0.54848        1.85676
