32

O          1.95320        0.40679        0.49271
C          3.11397        0.25552       -0.04034
O          4.10989       -0.22760        0.51851
C          3.24569        0.70212       -1.55821
C          2.77360       -0.45265       -2.44439
C          2.16994       -0.23057       -3.69042
C          1.80877       -1.30453       -4.51129
C          2.03092       -2.62116       -4.11024
C          2.62826       -2.84648       -2.86733
C          2.99784       -1.78085       -2.04545
C          2.91852       -4.26244       -2.44764
F          1.94445       -5.13282       -2.85176
F          4.08675       -4.72813       -2.99971
F          3.04418       -4.40540       -1.10630
C          1.12590       -1.04581       -5.82831
F         -0.23490       -1.05691       -5.71749
F          1.46354        0.15440       -6.36791
F          1.43651       -1.99736       -6.76353
C          2.48220        2.02868       -1.83383
C          0.94559        2.00177       -1.96474
O          0.40047        2.60323       -2.89067
O          0.29140        1.33379       -1.04336
C          4.73694        0.95019       -1.88189
H          1.96122        0.78391       -4.02809
H          1.74369       -3.45421       -4.74965
H          3.46196       -1.96995       -1.07620
H          2.85806        2.49479       -2.75545
H          2.72989        2.72210       -1.01286
H          1.02479        0.89719       -0.32576
H          5.33828        0.07365       -1.61583
H          5.11383        1.80118       -1.29691
H          4.86415        1.17306       -2.95205
