72

C          0.75038       -0.32514        0.27281
C          2.27998       -0.28696        0.20640
C          2.86880        1.09585        0.50774
C          4.39585        1.15984        0.39628
C          4.97457        2.55089        0.67769
C          6.49307        2.64249        0.49550
C          7.06105        4.04156        0.76950
C          8.57499        4.15493        0.53459
Si         9.35606        5.84649        0.91447
C          8.68032        7.20827       -0.19573
C          8.81518        8.55857        0.18513
C          8.35149        9.59350       -0.63138
C          7.73506        9.33251       -1.85919
C          7.61133        7.99385       -2.25525
C          8.07121        6.95281       -1.43925
Sb         7.10259       11.15042       -3.07169
C          9.27019       11.16006       -4.20439
C         10.20156        9.93422       -4.28732
F          9.55661        8.87100       -4.83368
F         11.31767       10.14604       -5.05632
F         10.64073        9.57083       -3.06006
F          9.08562       11.57682       -5.52661
F         10.02634       12.16339       -3.60714
C          6.16562        9.76356       -4.65230
C          6.64216        9.56098       -5.95122
C          5.98446        8.68873       -6.83626
C          4.83421        8.00752       -6.44305
C          4.34184        8.21617       -5.14977
C          5.00110        9.08344       -4.27100
C          3.08438        7.49862       -4.74542
F          1.98683        7.95046       -5.43546
F          3.14949        6.15294       -4.99887
F          2.79062        7.63177       -3.42701
C          6.56008        8.46088       -8.20858
F          6.87251        9.62722       -8.84192
F          7.71319        7.72704       -8.16929
F          5.70750        7.78574       -9.03749
C          9.01450        6.27554        2.72885
C         11.22798        5.68584        0.68312
H          0.35916       -1.32961        0.05672
H          0.30424        0.36871       -0.45556
H          0.38552       -0.03288        1.26920
H          2.61197       -0.61067       -0.79482
H          2.69866       -1.02306        0.91430
H          2.56053        1.41001        1.52104
H          2.42594        1.83551       -0.18238
H          4.69804        0.83951       -0.61660
H          4.84596        0.42701        1.09009
H          4.70993        2.85505        1.70621
H          4.48830        3.28632        0.01341
H          6.75474        2.34189       -0.53461
H          6.99071        1.91082        1.15776
H          6.82340        4.32177        1.81049
H          6.53287        4.77504        0.13790
H          8.81588        3.88442       -0.50851
H          9.10865        3.41495        1.15892
H          9.29759        8.81407        1.13413
H          8.48890       10.63356       -0.31241
H          7.16264        7.74229       -3.21900
H          7.95258        5.92276       -1.79035
H          6.82112       12.53537       -4.14121
H          7.87119       12.14371       -1.81533
H          5.49713       11.22648       -2.31734
H          7.53836       10.07799       -6.29617
H          4.33000        7.32950       -7.13017
H          4.60282        9.22430       -3.26228
H          7.94131        6.43622        2.90112
H          9.53907        7.19442        3.02608
H          9.35357        5.46613        3.39216
H         11.46987        5.38473       -0.34577
H         11.65390        4.93843        1.36943
H         11.72444        6.64795        0.87217
