30

C          1.14634       -0.97858       -0.29384
C          2.65130       -0.70715       -0.36059
C          3.47557       -1.58973        0.58254
C          4.97776       -1.29344        0.54831
C          5.80943       -2.17518        1.48316
C          7.29947       -1.80207        1.48577
N          8.04731       -2.56383        2.47860
S          9.30492       -3.34509        2.03274
O          9.95811       -2.91666        0.78458
O         10.16287       -3.67947        3.16760
C          8.68096       -5.09391        1.53286
C          9.71964       -6.13572        1.02945
F         10.33931       -5.73194       -0.09751
F         10.65642       -6.40546        1.95967
F          9.10023       -7.32719        0.73411
F          8.03702       -5.67697        2.59504
F          7.75153       -4.96667        0.51896
H          0.58353       -0.33792       -0.98872
H          0.75549       -0.79688        0.71925
H          0.92058       -2.02573       -0.54821
H          2.84439        0.35337       -0.12298
H          3.00756       -0.85347       -1.39473
H          3.30507       -2.65129        0.32823
H          3.10359       -1.46469        1.61566
H          5.13963       -0.23121        0.80947
H          5.34614       -1.40758       -0.48709
H          5.70645       -3.23434        1.19649
H          5.42822       -2.09425        2.51555
H          7.37594       -0.72307        1.73551
H          7.71140       -1.90742        0.46421
