15

C          0.96369        0.01574        0.09832
In         3.08157        0.58963        0.43975
C          4.27566       -1.39931        0.82792
C          4.16510       -2.53760       -0.20166
F          4.59260       -2.12859       -1.42712
F          4.89611       -3.65770        0.10713
F          2.87575       -2.94847       -0.33793
F          5.65282       -1.17436        0.96071
F          3.88673       -1.99148        2.04721
O          3.87823        1.30066       -1.37040
H          0.54705       -0.52623        0.95905
H          0.89615       -0.63524       -0.78470
H          0.35001        0.90971       -0.08351
H          3.52526        1.72334        1.71351
H          3.87996        0.56842       -2.00459
