62

N          0.82713       -1.19703       -0.50152
C          2.14494       -1.72256       -0.16525
Sb         3.26831       -0.56015        1.45254
C          2.55724       -2.04860        3.02274
C          3.14661       -3.31485        3.15028
C          2.62411       -4.27921        4.01787
C          1.47918       -4.01685        4.80042
C          0.88220       -2.74839        4.66049
C          1.41173       -1.79048        3.78705
Si         0.89948       -5.26880        6.07168
C          2.23639       -5.29772        7.42597
C          2.10997       -6.28304        8.59551
C          3.29346       -6.18055        9.56552
C          3.25012       -7.14286       10.75540
C          4.46850       -6.99560       11.67229
C          4.46207       -7.91797       12.89380
C          5.69659       -7.74794       13.78519
C          5.69052       -8.65514       15.01730
C         -0.77149       -4.77465        6.81665
C          0.72230       -7.00071        5.31806
C          3.96321        1.06083       -0.05343
O          3.30838        0.88581       -1.37297
C          3.53612        1.79966       -2.30105
F          4.85974        1.93535       -2.65530
F          2.86188        1.46086       -3.43446
F          3.12280        3.06967       -1.96358
H          0.94644       -0.28692       -0.95309
H          0.31822       -0.98921        0.36490
H          2.78284       -1.73708       -1.05933
H          2.05690       -2.74739        0.22696
H          1.70732        0.37293        1.71114
H          4.12621        0.46513        2.64483
H          4.75190       -1.57248        1.18490
H          4.03525       -3.55293        2.55349
H          3.11997       -5.25492        4.08670
H         -0.01237       -2.50123        5.24213
H          0.91514       -0.81728        3.69045
H          2.30603       -4.26623        7.81481
H          3.19532       -5.46763        6.90450
H          2.04303       -7.31763        8.21539
H          1.17082       -6.10213        9.14773
H          3.35463       -5.14384        9.94120
H          4.22737       -6.34708        9.00010
H          3.18931       -8.18285       10.38827
H          2.32747       -6.97086       11.33776
H          4.53719       -5.94708       12.01240
H          5.38489       -7.17967       11.08398
H          4.39390       -8.96926       12.56170
H          3.55223       -7.72953       13.49115
H          5.76831       -6.69403       14.10340
H          6.60240       -7.94383       13.18666
H          4.81584       -8.45374       15.65407
H          6.59057       -8.51112       15.63175
H          5.64978       -9.71640       14.72876
H         -0.72440       -3.79011        7.30324
H         -1.09729       -5.50671        7.57043
H         -1.54843       -4.72688        6.03995
H          1.65859       -7.33136        4.84605
H         -0.05770       -7.00582        4.54323
H          0.44719       -7.74550        6.08002
H          5.05182        1.00936       -0.20402
H          3.67066        2.04165        0.34845
