36

O          3.77310       -1.16550        0.35118
As         2.50352        0.35741        0.13529
C          1.18038       -0.46723        1.54433
C         -0.14495       -0.78436        0.88403
C         -1.23367       -1.44055        1.72195
O         -2.37353       -1.64625        1.35384
O         -0.84490       -1.81890        2.97758
C          3.70591        1.19618       -1.32045
C          5.01882        1.73107       -0.77849
C          5.75631        2.71332       -1.70605
C          5.07870        4.08216       -1.76761
N          5.75353        4.95524       -2.72316
C          5.41466        6.28763       -2.85720
N          4.43885        6.92524       -2.30335
N          6.28823        6.98340       -3.71802
H          3.48326       -1.79977       -0.32572
H          1.74430       -0.50057       -1.01119
H          1.46450        1.58070        0.01359
H          3.33869        1.02987        1.30982
H          1.10503        0.31638        2.31341
H          1.72008       -1.34791        1.92407
H          0.01653       -1.44855        0.01416
H         -0.59038        0.12777        0.45105
H          0.09588       -1.53561        3.04874
H          3.07622        1.98055       -1.77029
H          3.86743        0.39872       -2.05968
H          5.67409        0.87754       -0.54771
H          4.84085        2.23170        0.19351
H          5.81672        2.29402       -2.72494
H          6.79557        2.85607       -1.35380
H          5.07695        4.52972       -0.75465
H          4.02649        3.96887       -2.07287
H          6.73803        4.74855       -2.86763
H          3.96283        6.33802       -1.61360
H          6.48656        6.48074       -4.58063
H          5.91175        7.90891       -3.90881
