41

Cl         1.08684        0.66333       -0.06652
C          2.80272        0.42284       -0.58920
C          3.19818       -0.93207       -0.79591
C          2.42713       -2.05843       -0.35787
C          2.86105       -3.36101       -0.51919
C          4.10164       -3.65206       -1.12728
C          4.88927       -2.56247       -1.55760
C          4.45929       -1.25823       -1.40002
C          4.54343       -5.05219       -1.31736
C          3.84159       -5.90038       -2.44850
C          3.88066       -5.40097       -3.94271
C          5.24265       -5.29394       -4.74595
C          6.13750       -6.58166       -4.89139
C          7.22495       -6.48600       -6.02900
F          7.96304       -5.36705       -5.91038
F          8.04831       -7.55193       -5.92225
F          6.66848       -6.51305       -7.25352
F          6.80114       -6.80735       -3.73381
F          5.36677       -7.66313       -5.18276
F          4.88061       -4.91428       -6.01127
F          6.00178       -4.30645       -4.21761
F          3.08448       -6.25718       -4.65434
F          3.32564       -4.16626       -4.01191
F          4.33859       -7.18114       -2.45494
F          2.51268       -5.98617       -2.14416
F          5.89926       -5.14345       -1.57653
F          4.30785       -5.82685       -0.17743
C          3.22753        1.55207       -1.50324
C          3.34401        2.91292       -0.78700
C          4.29481        2.93114        0.41219
O          4.95571        3.91732        0.71013
O          4.33387        1.80424        1.12881
H          1.46306       -1.87467        0.11409
H          2.23009       -4.17777       -0.16449
H          5.86090       -2.74632       -2.01669
H          5.12285       -0.45886       -1.72992
H          2.53114        1.66161       -2.35828
H          4.20730        1.29883       -1.93598
H          2.34928        3.20095       -0.40750
H          3.66846        3.70325       -1.47677
H          3.72233        1.08793        0.62625
