58

C          9.11029        6.02043        0.65200
C          8.62473        4.58446        0.44189
C          9.18369        3.93484       -0.82743
C          8.72100        2.49031       -1.03616
C          9.22910        1.85997       -2.33631
C          8.79467        0.40349       -2.52283
C          9.22610       -0.20817       -3.86167
C          8.80963       -1.67631       -4.02666
Si         9.20949       -2.50488       -5.69554
C          8.56268       -4.26393       -5.65962
C          7.21927       -4.51254       -5.30904
C          6.70931       -5.81361       -5.28021
C          7.50986       -6.91545       -5.60491
C          8.84538       -6.68048       -5.95932
C          9.36243       -5.37929       -5.98058
As         6.68353       -8.80571       -5.49312
C          5.70683       -8.34921       -7.30613
O          4.87287       -9.50040       -7.68456
C          4.07415       -9.35369       -8.72439
F          4.71564       -9.04779       -9.90425
F          3.39994      -10.51839       -8.93938
F          3.11574       -8.37130       -8.57438
O          8.21850       -9.48112       -6.54989
C          8.36454       -1.52130       -7.08147
C         11.08091       -2.47306       -5.99235
H          8.69079        6.46184        1.56721
H          8.82127        6.66470       -0.19209
H         10.20699        6.05991        0.73484
H          7.52250        4.56912        0.39971
H          8.90170        3.96989        1.31528
H         10.28746        3.96380       -0.79580
H          8.89162        4.54179       -1.70307
H          7.61719        2.45609       -1.02591
H          9.04911        1.87569       -0.17927
H         10.33176        1.91852       -2.36563
H          8.87215        2.45975       -3.19253
H          7.69556        0.33572       -2.43786
H          9.19812       -0.20878       -1.69727
H         10.32218       -0.11630       -3.96034
H          8.79990        0.39927       -4.67941
H          7.72051       -1.77180       -3.86989
H          9.27081       -2.28999       -3.23334
H          6.55615       -3.67818       -5.05231
H          5.66542       -5.98052       -4.99022
H          9.47358       -7.53381       -6.22237
H         10.41160       -5.23301       -6.25757
H          6.04106      -10.26741       -5.53200
H          5.44901       -8.22227       -4.66967
H          7.49575       -9.11695       -4.16462
H          6.46065       -8.18558       -8.08482
H          5.05501       -7.47560       -7.16516
H          8.04574      -10.43548       -6.56106
H          7.27261       -1.52548       -6.95152
H          8.57993       -1.97887       -8.05768
H          8.70077       -0.47417       -7.11492
H         11.62013       -3.01746       -5.20374
H         11.46098       -1.44114       -6.01311
H         11.33593       -2.94080       -6.95409
