97

C         16.86992      -10.44754       -6.11834
C         15.65238       -9.52374       -6.20633
C         15.04014       -9.19579       -4.84081
C         13.82536       -8.26559       -4.91535
C         13.20027       -7.95955       -3.55063
C         11.99440       -7.01699       -3.61796
C         11.34358       -6.76031       -2.25283
C         10.14046       -5.80561       -2.30052
Si         9.20800       -5.60812       -0.64818
C          8.56514       -7.27944       -0.08374
C          9.33272       -8.11352        0.75719
C          8.90403       -9.40373        1.08142
C          7.69985       -9.91269        0.58962
C          6.91930       -9.08886       -0.22473
C          7.34268       -7.79742       -0.56112
As         7.24484      -11.91147        0.91795
C          5.65352      -11.48105        2.23049
C          4.32792      -11.70730        1.84501
C          3.27114      -11.52736        2.74204
C          3.50553      -11.10036        4.06782
C          4.84277      -10.85552        4.44351
C          5.89216      -11.04532        3.53638
Si         2.07665      -10.95654        5.26850
C          1.30801      -12.68849        5.52237
C          2.33171      -13.75126        5.93654
C          1.73797      -15.12487        6.15464
F          1.12191      -15.61723        5.04264
F          2.69006      -16.03796        6.51016
F          0.80181      -15.13652        7.15327
C          2.65063      -10.30345        6.95039
C          0.70898       -9.83634        4.59362
C          7.02400      -13.98111        1.12532
C          8.27509      -14.56337        1.76698
C          8.22380      -14.55281        3.29949
C          9.57614      -14.84736        3.94421
N          9.48427      -14.75657        5.39840
C         10.59183      -14.91409        6.20893
N         11.78071      -15.29431        5.87454
N         10.32679      -14.60476        7.55583
C         10.39032       -4.87078        0.63793
C          7.78168       -4.39084       -0.92314
H         17.28422      -10.67022       -7.11213
H         16.60758      -11.40501       -5.64389
H         17.67129       -9.99195       -5.51698
H         14.88226       -9.98914       -6.84461
H         15.93705       -8.58486       -6.71143
H         15.81205       -8.73717       -4.19724
H         14.74905      -10.13523       -4.33886
H         13.06048       -8.71908       -5.57031
H         14.12039       -7.31981       -5.40450
H         13.96815       -7.52143       -2.88821
H         12.89323       -8.90553       -3.07198
H         11.23694       -7.44121       -4.30061
H         12.30323       -6.05525       -4.06624
H         12.10813       -6.35993       -1.56386
H         11.02765       -7.72564       -1.82280
H          9.40929       -6.17334       -3.04234
H         10.45952       -4.80915       -2.65666
H         10.28548       -7.75321        1.15950
H          9.52438      -10.04402        1.72189
H          5.97130       -9.47260       -0.62089
H          6.70876       -7.18431       -1.21120
H          8.26214      -11.85662        2.19011
H          8.49168      -12.26519       -0.06482
H          6.17719      -11.86205       -0.29312
H          4.12416      -12.03898        0.81880
H          2.24646      -11.72857        2.40669
H          5.06817      -10.51252        5.45894
H          6.92690      -10.85896        3.85275
H          0.82931      -12.98863        4.57640
H          0.50452      -12.61846        6.27370
H          2.83677      -13.48428        6.87749
H          3.11521      -13.85785        5.17135
H          3.41862      -10.94672        7.40293
H          1.80504      -10.24545        7.65163
H          3.07938       -9.29559        6.85663
H          0.37409      -10.18074        3.60474
H          1.07458       -8.80623        4.47795
H         -0.16601       -9.81738        5.26030
H          6.89927      -14.31564        0.08511
H          6.11019      -14.21875        1.69132
H          9.14344      -13.95522        1.43464
H          8.48012      -15.59291        1.41847
H          7.47706      -15.28133        3.65869
H          7.88693      -13.55449        3.62565
H         10.32705      -14.13556        3.55006
H          9.91665      -15.86220        3.67654
H          8.80766      -14.07264        5.72866
H         11.86958      -15.35037        4.85672
H          9.44361      -14.97783        7.89649
H         11.10778      -14.89291        8.13936
H         11.25870       -5.51956        0.81821
H          9.88020       -4.72422        1.60068
H         10.76872       -3.89365        0.30162
H          7.07184       -4.76492       -1.67469
H          8.15693       -3.41783       -1.27410
H          7.22238       -4.22446        0.00866
