31

C          2.48474       -0.46764       -1.39503
C          2.24152       -0.36356        0.11123
C          2.87235       -1.49208        0.95678
C          4.39535       -1.61147        0.97333
C          5.14304       -0.42378        1.36164
C          6.56922       -0.46902        2.00818
C          7.09830        0.87257        2.68802
C          7.16437        2.21565        1.87707
F          7.76488        2.05364        0.68598
F          5.95710        2.77070        1.70059
F          7.91130        3.10276        2.59544
F          6.40557        1.13672        3.82851
F          8.39353        0.60564        3.05336
F          6.59575       -1.36346        3.03657
F          7.51432       -0.80788        1.09280
F          5.34204        0.52824        0.27880
F          4.37886        0.32909        2.26941
S          5.07699       -3.07187        0.50785
O          6.40003       -3.32256        1.06900
O          4.06913       -4.13356        0.52035
C          5.52004       -3.04994       -1.35119
F          6.33530       -2.01008       -1.66265
F          6.16374       -4.19173       -1.71649
F          4.41658       -2.94854       -2.14101
H          1.97808        0.34797       -1.93364
H          2.11193       -1.42171       -1.79644
H          3.55589       -0.40825       -1.62644
H          1.15444       -0.38074        0.30777
H          2.59928        0.61294        0.47101
H          2.48062       -2.46075        0.61670
H          2.51197       -1.36901        1.99343
