27

C          2.03034        0.56492        0.02902
In         0.86239       -1.33105        0.09315
C          2.00785       -2.95714       -0.97159
C          2.85875       -2.43635       -2.13303
C          3.71145       -3.48651       -2.87768
C          2.87632       -4.53605       -3.61019
N          3.72897       -5.41653       -4.40589
C          3.19704       -6.38465       -5.23649
N          1.96976       -6.77303       -5.33033
N          4.16708       -6.98020       -6.06922
I          1.06866       -2.12417        2.89117
H          2.28830        0.84022       -1.00582
H          2.96291        0.43526        0.59608
H          1.46618        1.39316        0.47856
H         -0.87198       -1.24111       -0.25013
H          1.28584       -3.71699       -1.30948
H          2.64687       -3.43233       -0.20978
H          3.54621       -1.65606       -1.76567
H          2.22035       -1.93085       -2.88179
H          4.38487       -3.99238       -2.16525
H          4.35466       -2.97433       -3.62060
H          2.13017       -4.02678       -4.25203
H          2.31742       -5.14359       -2.88225
H          4.57464       -4.97569       -4.75857
H          1.35590       -6.18070       -4.76499
H          5.02337       -7.22932       -5.57838
H          3.76207       -7.78812       -6.53646
