34

N          1.04404        0.20339        0.30341
C          2.38874        0.25167       -0.31192
C          2.32414       -0.19873       -1.78097
C          3.67044       -0.44006       -2.43331
S          4.15816        0.70492       -3.55686
O          5.14355        0.21946       -4.52592
O          3.03799        1.52575       -4.02661
C          5.21247        2.05519       -2.64279
C          5.77460        3.23987       -3.47678
F          6.62254        2.81952       -4.43643
F          4.79213        3.95768       -4.05578
F          6.47825        4.10289       -2.67360
F          4.44965        2.61405       -1.64481
F          6.28900        1.45211       -2.04331
C          4.47727       -1.59473       -2.06023
C          5.80744       -1.85587       -2.50155
C          6.50371       -2.99370       -2.11148
C          5.94923       -3.96456       -1.25756
C          4.64294       -3.72622       -0.81607
C          3.93192       -2.58637       -1.19495
C          6.73313       -5.17630       -0.81839
H          1.10432        0.45889        1.29094
H          0.70409       -0.76159        0.28434
H          3.13643       -0.36055        0.22535
H          2.73992        1.29256       -0.27569
H          1.75906        0.54359       -2.35720
H          1.72741       -1.13186       -1.83167
H          6.28643       -1.15237       -3.17832
H          7.52246       -3.13355       -2.48748
H          4.15942       -4.45219       -0.15376
H          2.91654       -2.47285       -0.81569
H          7.29586       -5.62280       -1.65359
H          6.06970       -5.95356       -0.41028
H          7.46996       -4.93261       -0.03268
