19

S          1.79042        2.84406        1.69692
N          2.18306        1.43639        2.60794
S          2.68704        0.17973        1.78646
O          2.53949       -1.01329        2.61406
O          2.33900        0.08967        0.36790
C          4.60203        0.36654        1.72896
C          5.49385       -0.80302        1.18690
C          5.34634       -1.32462       -0.29520
C          5.51991       -0.31243       -1.48398
F          6.69410        0.35139       -1.38505
F          5.55009       -1.02650       -2.64197
F          4.52461        0.56837       -1.56898
F          6.34945       -2.25251       -0.45989
F          4.16929       -1.96236       -0.45453
F          6.81241       -0.41647        1.31676
F          5.31858       -1.89779        1.97313
F          4.93520        1.48706        1.00242
F          5.04873        0.57447        3.00783
H          2.92811        3.57830        1.87967
