38

S          5.46907        1.96482        2.94739
C          4.79110        2.48174        1.31929
C          5.46600        1.65640        0.22143
C          4.83968        1.91957       -1.16495
Ta         5.17566        3.87548       -2.08201
S          3.35954        5.30381       -2.96132
O          2.19057        5.07948       -2.07814
O          3.75896        6.69477       -3.24222
C          2.63206        4.79442       -4.72423
C          1.46937        3.75648       -4.74060
F          1.79769        2.60564       -4.12261
F          0.35539        4.25104       -4.17016
F          1.15155        3.43891       -6.03410
F          2.13202        5.93248       -5.28834
F          3.61808        4.32617       -5.53780
C          7.40480        3.98449       -2.23983
C          8.41633        2.91441       -2.73507
C          8.53816        2.74584       -4.28871
C          9.47552        1.57514       -4.77180
F         10.72372        1.68445       -4.27547
F          8.98114        0.37057       -4.42792
F          9.55889        1.62134       -6.12149
F          7.31674        2.49401       -4.82231
F          9.03549        3.89018       -4.83076
F          9.67472        3.18901       -2.26077
F          8.04149        1.70028       -2.21740
F          7.86233        5.21350       -2.66756
F          7.60766        3.98983       -0.81527
H          4.75699        2.82827        3.70863
H          4.97351        3.55666        1.17681
H          3.70596        2.31066        1.31477
H          5.36937        0.58625        0.48342
H          6.54608        1.87183        0.22348
H          3.75753        1.70700       -1.13071
H          5.24668        1.20024       -1.90261
H          5.50047        4.09366       -3.78885
H          4.05655        3.02189       -3.09595
H          4.70994        5.22386       -1.01127
