60

Cl         1.01923       -0.40111        0.21253
In         2.66921       -0.47379       -1.56288
S          4.64503        1.24752       -0.76873
O          5.65691        0.50478        0.01233
O          5.13290        2.06830       -1.89621
C          4.10166        2.57159        0.62488
C          3.34116        3.86814        0.22742
C          1.92668        3.69400       -0.41906
F          1.05225        3.15885        0.44647
F          1.45802        4.91398       -0.78789
F          1.98468        2.92287       -1.52009
F          3.14858        4.64024        1.35379
F          4.10421        4.58973       -0.63424
F          3.35914        1.89730        1.54974
F          5.25611        2.98346        1.22223
C          3.83880       -2.30415       -1.34846
C          4.47989       -2.61390       -0.13622
C          5.25553       -3.76703       -0.00688
C          5.41642       -4.66731       -1.07897
C          4.76490       -4.36107       -2.28767
C          3.99575       -3.19992       -2.41809
Si         6.60313       -6.11092       -0.93536
C          8.38272       -5.42597       -1.04881
C          8.50494       -4.34537       -2.13293
C          9.87533       -4.10055       -2.75032
C         10.93639       -3.21307       -1.99352
C         11.59683       -3.66119       -0.63075
C         12.42617       -4.99957       -0.49671
C         13.70365       -5.27618       -1.38933
C         14.91604       -4.27343       -1.32818
F         15.29069       -4.03599       -0.05780
F         15.95642       -4.83747       -1.97984
F         14.62955       -3.10867       -1.92644
F         14.18256       -6.47989       -0.95958
F         13.33846       -5.40443       -2.68581
F         12.83926       -5.04142        0.80229
F         11.59512       -6.05331       -0.69994
F         12.43883       -2.65074       -0.26708
F         10.62020       -3.74058        0.31160
F         11.96697       -2.96993       -2.85585
F         10.33592       -2.02360       -1.71054
F         10.49128       -5.28489       -3.09248
F          9.68963       -3.41232       -3.93320
C          6.41766       -7.01235        0.71276
C          6.35600       -7.33469       -2.35585
H          2.06312        0.18869       -3.04898
H          4.39696       -1.93564        0.71489
H          5.75255       -3.95881        0.94904
H          4.85915       -5.03024       -3.14792
H          3.52000       -2.99598       -3.38208
H          9.05069       -6.27364       -1.26351
H          8.67192       -5.03199       -0.06621
H          8.11231       -3.38223       -1.77827
H          7.89087       -4.60321       -3.01120
H          6.54097       -6.32370        1.56002
H          7.16865       -7.80949        0.81241
H          5.42098       -7.46783        0.79329
H          6.56040       -6.87969       -3.33547
H          5.32409       -7.71274       -2.37241
H          7.03322       -8.19292       -2.23978
