45

S          9.01060       -6.07137        3.47656
C          7.56056       -5.01279        3.06653
C          8.04824       -3.60504        2.73550
C          6.91474       -2.66592        2.27637
Nb         5.76458       -1.53153        3.84981
C          4.16596       -2.24834        5.17057
C          4.08225       -1.75177        6.49480
C          3.07187       -2.14234        7.37688
C          2.06426       -3.05424        6.99637
C          2.14422       -3.55950        5.67785
C          3.16069       -3.17673        4.80628
Si         0.73725       -3.61502        8.17657
C          0.23478       -2.16040        9.31260
C         -0.74707       -2.54215       10.42485
C         -1.15066       -1.39231       11.32187
F         -1.78168       -0.39169       10.64325
F         -2.01812       -1.79969       12.30284
F         -0.08830       -0.82470       11.96002
C         -0.80897       -4.20153        7.24752
C          1.32749       -5.04085        9.28487
Cl         7.27508       -0.02851        4.83726
H          8.32477       -7.13605        3.95681
H          6.87672       -4.98236        3.92463
H          7.03672       -5.45025        2.20423
H          8.82344       -3.68671        1.94705
H          8.56477       -3.19733        3.62209
H          6.23753       -3.20044        1.58594
H          7.35067       -1.85433        1.66296
H          5.27516       -1.11015        2.21195
H          5.96952       -3.19250        4.39590
H          4.20971       -0.74455        3.62069
H          4.82321       -1.02893        6.85329
H          3.07287       -1.71570        8.38630
H          1.39140       -4.27125        5.32208
H          3.16775       -3.61122        3.80037
H         -0.19705       -1.37066        8.67827
H          1.14886       -1.73481        9.75492
H         -0.32344       -3.31227       11.08702
H         -1.68354       -2.95105       10.01495
H         -1.21443       -3.40104        6.61259
H         -1.60037       -4.52496        7.94016
H         -0.57711       -5.05606        6.59571
H          2.18318       -4.72895        9.90152
H          1.66545       -5.88149        8.66189
H          0.53898       -5.41595        9.95543
