38

N          1.68402       -0.91822        0.69529
C          2.81797       -0.67318       -0.22576
C          3.16611        0.81563       -0.30125
C          4.34010        1.16216       -1.22378
Ga         4.89927        3.12128       -1.05250
C          3.68805        4.38419       -2.12943
C          2.27762        4.66791       -1.58465
C          2.32703        5.44157       -0.25843
C          1.39031        5.41340       -2.59956
C          6.82612        3.52894       -1.63735
C          7.42686        4.62015       -0.72031
C          8.73284        5.17624       -1.24884
O          9.85428        4.79395       -0.91020
N          8.58895        6.19246       -2.18567
H          1.34798       -1.87837        0.59968
H          0.90252       -0.31739        0.42198
H          2.63409       -1.05037       -1.25307
H          3.68976       -1.22736        0.16254
H          3.36875        1.17602        0.72212
H          2.26121        1.36351       -0.63086
H          4.09165        0.90942       -2.27043
H          5.21715        0.54601       -0.95342
H          4.82666        3.47470        0.53792
H          3.60614        3.95286       -3.14482
H          4.22110        5.34825       -2.25664
H          1.78552        3.69745       -1.37849
H          2.79970        6.42779       -0.40846
H          2.92715        4.90043        0.48553
H          1.31883        5.61410        0.15298
H          1.82717        6.39712       -2.84185
H          0.36904        5.58593       -2.21582
H          1.30915        4.84938       -3.54147
H          6.80428        3.88048       -2.68481
H          7.47463        2.63879       -1.61734
H          7.61878        4.20313        0.27713
H          6.70512        5.44560       -0.58934
H          7.68841        6.29146       -2.64218
H          9.40531        6.38139       -2.75816
