34

F          0.77447       -0.39849        0.18821
C          0.19109        0.80346        0.45883
C          0.77771        1.48303        1.67504
C          2.27970        1.76740        1.56792
Si         2.98669        2.68024        3.09504
C          2.50848        1.78515        4.65438
C          2.99849        0.48821        4.93326
C          2.63517       -0.22517        6.07000
C          1.73304        0.32684        7.02324
C          1.23702        1.63003        6.74339
C          1.61220        2.32843        5.60376
N          1.26625       -0.26647        8.17347
S          1.81919       -1.63265        8.71509
O          3.25935       -1.84906        8.64741
O          1.13123       -1.99670        9.93642
F          1.24883       -2.76514        7.61421
C          4.86473        2.74773        2.84927
C          2.30896        4.45181        3.09056
F          0.32015        1.55923       -0.67710
F         -1.14676        0.56354        0.60594
H          0.56483        0.83859        2.54101
H          0.19772        2.40799        1.81556
H          2.49404        2.35991        0.66336
H          2.82576        0.81675        1.45839
H          3.69615        0.01066        4.23592
H          3.05107       -1.21661        6.24456
H          0.54165        2.06765        7.46238
H          1.19602        3.32879        5.44950
H          5.30328        1.74061        2.89494
H          5.33617        3.34785        3.64037
H          5.13162        3.19003        1.87757
H          1.21224        4.47576        3.16554
H          2.59347        4.97536        2.16583
H          2.70878        5.02470        3.93945
