66

N          4.07725        2.02170       -0.92781
Ga         3.03961        0.46196       -0.41479
C          2.96202        0.21665        1.62237
C          1.82901        0.64937        2.34057
C          1.75436        0.56097        3.73591
C          2.81933        0.02714        4.47320
C          3.94848       -0.41371        3.78384
C          4.01299       -0.32066        2.38212
C          5.10423       -1.01548        4.53227
F          4.98357       -0.90623        5.88905
F          5.25538       -2.35093        4.26964
F          6.29683       -0.43328        4.20415
C          0.54668        1.03668        4.49217
F         -0.44521        1.50367        3.69091
F         -0.01061        0.04608        5.26272
F          0.84803        2.05173        5.36771
C          3.96070       -1.12798       -1.25587
C          4.80090       -0.92864       -2.36959
C          5.41423       -1.99487       -3.03225
C          5.22575       -3.32868       -2.61225
C          4.39384       -3.53526       -1.49433
C          3.78063       -2.46047       -0.83953
Si         6.05453       -4.73323       -3.53804
C          7.90417       -4.31847       -3.72694
C          8.75922       -5.25888       -4.58795
C         10.22234       -4.81081       -4.69770
C         11.09855       -5.72095       -5.56283
C         12.54954       -5.24136       -5.67006
C         13.44355       -6.14155       -6.52704
C         14.89058       -5.64880       -6.62952
C         15.78351       -6.55645       -7.47841
C          5.85835       -6.37062       -2.60417
C          5.28551       -4.93091       -5.26244
H          4.89528        2.15048       -0.32687
H          3.51906        2.86945       -0.80288
H          1.52820        0.67781       -0.89817
H          0.98042        1.06509        1.79129
H          2.76747       -0.04237        5.55901
H          4.91338       -0.68288        1.87662
H          4.97255        0.09546       -2.71688
H          6.05547       -1.78093       -3.89538
H          4.22044       -4.55119       -1.12453
H          3.14151       -2.67485        0.02414
H          8.32788       -4.25192       -2.70941
H          7.96613       -3.29296       -4.13154
H          8.33234       -5.33000       -5.60376
H          8.72801       -6.28339       -4.17664
H         10.65454       -4.74358       -3.68372
H         10.25087       -3.78432       -5.10404
H         10.66281       -5.79346       -6.57533
H         11.08151       -6.74609       -5.15188
H         12.98039       -5.16191       -4.65623
H         12.56240       -4.21716       -6.08291
H         13.01512       -6.22370       -7.54194
H         13.43668       -7.16552       -6.11283
H         15.31392       -5.56010       -5.61456
H         14.89595       -4.62830       -7.04847
H         15.82320       -7.57485       -7.06320
H         16.81418       -6.17766       -7.53102
H         15.40434       -6.63586       -8.50848
H          6.28942       -6.30893       -1.59471
H          6.36001       -7.19186       -3.13724
H          4.79839       -6.64336       -2.49873
H          5.37299       -3.99769       -5.83764
H          4.21431       -5.16334       -5.17586
H          5.76246       -5.73554       -5.84190
