41

N          2.07624        1.09218        3.98202
C          1.88043        0.09747        2.90594
Ga         3.07416        0.42475        1.31563
S          2.10727        2.64601        0.68385
O          0.91173        2.61944       -0.16237
O          2.06645        3.55332        1.84162
F          3.26856        3.38113       -0.32870
C          4.99362        0.84195        1.71820
C          5.43935        1.06053        3.03740
C          6.78956        1.28916        3.32166
C          7.76155        1.31880        2.30008
C          7.31485        1.11212        0.97906
C          5.96469        0.87666        0.70091
Si         9.57962        1.53023        2.70778
C         10.26535       -0.12627        3.37245
C          9.98540       -1.31401        2.44546
C         10.52416       -2.63236        2.95293
F          9.99150       -2.99268        4.15454
F         10.25901       -3.65503        2.08568
F         11.88238       -2.61444        3.12092
C         10.57724        2.01255        1.17291
C          9.85036        2.82658        4.05701
H          1.32754        1.02567        4.67531
H          2.01899        2.03697        3.59166
H          0.83534        0.02250        2.54643
H          2.14821       -0.90277        3.29138
H          2.84320       -0.42150        0.00149
H          4.70888        1.05943        3.85195
H          7.08719        1.45309        4.36301
H          8.02900        1.13939        0.14995
H          5.66067        0.72227       -0.33863
H          9.80576       -0.31102        4.35652
H         11.34937       -0.02307        3.54332
H         10.43223       -1.16482        1.45058
H          8.90396       -1.44690        2.29323
H         10.50121        1.26261        0.37271
H         11.64220        2.12632        1.42396
H         10.22222        2.96805        0.76155
H          9.28610        2.58004        4.96750
H          9.51505        3.81667        3.71771
H         10.91366        2.89989        4.32958
