39

C          0.42161        0.92557        0.38193
C          1.90314        0.58392        0.19064
C          2.56636        1.33177       -0.97152
C          4.05535        1.01386       -1.14672
C          4.71169        1.72129       -2.34746
C          6.18881        1.49905       -2.52878
C          6.55180        0.08789       -2.92694
C          7.16778       -0.71609       -1.77539
S          7.50875       -2.47718       -2.27891
C          8.19723       -3.09476       -0.71491
C          6.86864        2.55558       -3.35641
C          8.33556        2.73961       -2.95945
S          9.20453        3.90910       -4.10860
C         10.82331        3.96504       -3.28365
H         -0.02308        0.37212        1.22352
H         -0.16228        0.68368       -0.52024
H          0.28313        2.00034        0.57983
H          2.01135       -0.50232        0.02772
H          2.45275        0.80182        1.12285
H          2.44086        2.42048       -0.82108
H          2.03090        1.09558       -1.90950
H          4.17395       -0.07857       -1.25894
H          4.61646        1.29035       -0.23641
H          4.51789        2.80574       -2.24794
H          4.11120        1.39471       -3.25469
H          7.27847        0.08258       -3.76792
H          5.66232       -0.48066       -3.30359
H          6.48982       -0.73474       -0.90883
H          8.11411       -0.25306       -1.45511
H          8.47508       -4.14673       -0.86547
H          7.45932       -3.03975        0.09948
H          9.09601       -2.53234       -0.42055
H          6.35468        3.52453       -3.22658
H          6.85150        2.35240       -4.46968
H          8.87256        1.77866       -3.00131
H          8.39770        3.12510       -1.92946
H         11.46838        4.64105       -3.86094
H         11.29234        2.97039       -3.25434
H         10.74002        4.34992       -2.25614
