11

Cl         4.17819        0.63799        1.51627
B          2.89058       -0.02107        0.34242
C          3.56157       -0.88266       -0.87801
C          4.46871       -0.09320       -1.87577
F          3.81679        0.97972       -2.39325
F          5.60752        0.35445       -1.30233
F          4.84397       -0.87273       -2.93429
F          4.34774       -1.95380       -0.47081
F          2.57371       -1.42321       -1.70124
I          1.42496       -1.42655        1.46859
H          2.20440        0.86805       -0.09324
