36

N          1.43459       -0.53784        0.51428
C          2.84188       -0.48608        0.35499
N          3.57043       -1.32735       -0.29950
N          3.39672        0.58380        1.01996
C          4.84540        0.74820        1.14041
C          5.16194        2.06760        1.84145
C          6.65946        2.30052        2.07875
C          6.96389        3.63288        2.78104
Al         8.85912        4.13307        3.18590
S         10.12044        3.74533        1.13044
O         11.43037        4.39096        1.04047
O         10.03419        2.34915        0.68977
F          9.19933        4.57224       -0.04108
C          9.92862        2.94172        4.42454
C          9.70994        1.42793        4.31499
C         10.45739        0.53690        5.30571
O         10.22808       -0.64123        5.48686
O         11.45113        1.15666        6.01014
H          0.99563       -1.17905       -0.13984
H          0.98963        0.37789        0.47390
H          2.98465       -1.98902       -0.81643
H          2.86865        0.90588        1.82629
H          5.27558        0.72431        0.12935
H          5.29205       -0.10080        1.68901
H          4.64041        2.09432        2.81798
H          4.75085        2.90273        1.24893
H          7.19024        2.25719        1.11399
H          7.05696        1.45622        2.66766
H          6.41545        3.67264        3.74407
H          6.54522        4.46266        2.18215
H          9.09210        5.69790        3.51642
H          9.68839        3.29992        5.44325
H         10.98439        3.21094        4.22812
H          9.99104        1.06840        3.31038
H          8.64788        1.16055        4.42285
H         11.42751        2.09739        5.72567
