62

C          3.50741        1.75382        3.83242
C          3.27439        0.57089        2.88765
Ta         3.60080       -1.44623        3.57308
S          2.04068       -2.13722        5.34298
O          1.71584       -0.69741        4.97389
O          0.92848       -3.08966        5.47708
C          2.54122       -1.91442        7.18723
F          3.37891       -0.87546        7.38880
F          1.44097       -1.70844        7.95010
F          3.15356       -3.03922        7.63881
C          5.75787       -1.59136        3.06493
C          6.56447       -0.44060        2.89803
C          7.94835       -0.51023        2.69724
C          8.62606       -1.74273        2.65810
C          7.82972       -2.90333        2.80714
C          6.45196       -2.82464        2.98672
Si        10.48383       -1.88659        2.55162
C         11.09514       -2.65985        4.19142
C         10.58448       -1.88955        5.41729
C         10.89059       -2.58466        6.73045
C         10.54194       -1.79839        8.04680
C          9.08625       -1.24320        8.28661
C          7.83007       -2.20608        8.35114
C          7.81662       -3.33023        9.45273
C          6.40259       -3.98078        9.70201
F          5.85570       -4.40555        8.55552
F          6.57273       -5.04591       10.52086
F          5.56898       -3.12006       10.30644
F          8.65890       -4.32716        9.08483
F          8.23458       -2.81965       10.64307
F          6.76858       -1.38785        8.58674
F          7.67160       -2.78512        7.13826
F          9.13210       -0.54878        9.45834
F          8.81143       -0.35641        7.28992
F         10.86951       -2.57086        9.12166
F         11.34552       -0.68855        8.07320
F         10.26736       -3.80661        6.80289
F         12.24613       -2.83785        6.84375
C         11.03278       -3.03212        1.14721
C         11.30526       -0.19396        2.32961
H          3.31224        2.72476        3.34548
H          4.54427        1.78651        4.20134
H          2.84929        1.68388        4.70927
H          3.91761        0.63106        1.98684
H          2.22434        0.54883        2.53966
H          2.28012       -2.51622        3.04990
H          4.55952       -1.67907        5.05475
H          3.88890       -2.30398        2.04936
H          6.11151        0.55538        2.93366
H          8.50825        0.42372        2.57965
H          8.29783       -3.89408        2.77494
H          5.88936       -3.76103        3.06958
H         12.19436       -2.72304        4.20144
H         10.71732       -3.69449        4.22353
H          9.49439       -1.75983        5.35109
H         11.02486       -0.88250        5.46666
H         10.52975       -4.00704        1.21885
H         12.11860       -3.20816        1.16327
H         10.77061       -2.59718        0.17214
H         11.05224        0.49738        3.14603
H         10.99038        0.27807        1.38806
H         12.40026       -0.29681        2.30402
