36

C          2.35787        1.52275       -1.43606
C          1.05934        1.15072       -0.76195
C          0.88374       -0.11338       -0.17989
C         -0.31208       -0.45083        0.46124
C         -1.38437        0.45516        0.54472
C         -1.20203        1.71829       -0.04527
C         -0.00469        2.05968       -0.68442
In        -3.25775       -0.07038        1.54128
S         -4.41285       -1.88057       -0.13593
O         -5.88427       -1.96522       -0.07255
O         -3.78703       -1.87532       -1.47196
C         -3.77223       -3.66228        0.52433
C         -4.66124       -4.34013        1.60093
C         -4.00431       -5.54784        2.37339
C         -5.00668       -6.45464        3.17573
F         -5.79304       -5.72324        3.98712
F         -5.78622       -7.17841        2.35136
F         -4.30112       -7.32103        3.94344
F         -3.36044       -6.36795        1.49452
F         -3.09553       -5.07466        3.26637
F         -5.00349       -3.41326        2.53913
F         -5.79451       -4.80303        1.00092
F         -3.64925       -4.49320       -0.54142
F         -2.51900       -3.45129        1.04968
C         -4.71854        1.66546        1.35261
F         -4.22802        2.78156        2.03401
F         -4.93705        2.11544        0.06689
F         -5.97151        1.45902        1.88055
H          2.80980        0.65775       -1.94230
H          3.09668        1.89480       -0.70703
H          2.20866        2.31584       -2.18227
H          1.69216       -0.84875       -0.23873
H         -0.40767       -1.45314        0.88767
H         -2.00839        2.45609       -0.02207
H          0.10038        3.04780       -1.14327
H         -3.33142       -0.88624        3.07868
