62

O          2.92258       -1.05501        0.97138
C          3.02933        0.31495        0.89679
O          2.69793        0.98129        1.86408
C          3.58307        0.84667       -0.37643
P          5.56535        0.54746       -0.51961
C          5.24136       -0.95279       -2.05029
C          4.76768       -0.77131       -3.51225
F          5.73112       -0.22125       -4.28972
F          4.41155       -1.94752       -4.12023
F          3.67677        0.03809       -3.57558
F          6.39923       -1.71073       -2.13261
F          4.27486       -1.83974       -1.51021
C          5.82472        2.04159       -1.73371
C          6.87157        1.93047       -2.65902
C          7.23279        2.98988       -3.49016
C          6.58129        4.23759       -3.40614
C          5.55439        4.36186       -2.45371
C          5.18194        3.28418       -1.64423
Si         7.18327        5.66762       -4.45133
C          9.05055        5.87337       -4.10642
C          9.35511        5.93285       -2.60539
C         10.81274        6.12344       -2.19367
C         11.69912        4.84494       -1.93838
C         12.00016        3.80078       -3.08196
C         12.77314        4.20284       -4.40032
C         14.24062        4.79181       -4.35408
C         15.38533        3.95092       -3.67698
F         15.40918        2.69153       -4.14933
F         16.56581        4.53854       -3.97159
F         15.25665        3.91810       -2.34277
F         14.60234        4.94570       -5.66063
F         14.22356        6.01423       -3.77269
F         12.82897        3.06526       -5.14806
F         12.03362        5.11426       -5.08306
F         12.72067        2.79635       -2.50556
F         10.81580        3.27696       -3.49516
F         12.90557        5.25624       -1.44938
F         11.07968        4.11912       -0.96501
F         11.49725        6.93884       -3.06509
F         10.84401        6.76601       -0.96912
C          6.98392        5.32033       -6.29761
C          6.29147        7.27619       -4.01077
H          3.35900       -1.43138        0.18064
H          3.37757        1.91785       -0.41216
H          3.12236        0.36240       -1.24504
H          5.44093       -0.64419        0.32432
H          5.80524        1.41581        0.62755
H          6.98687        0.25773       -0.72044
H          7.42790        0.99067       -2.71466
H          8.04724        2.84194       -4.20717
H          5.03291        5.31545       -2.32985
H          4.39070        3.44243       -0.90887
H          9.41941        6.77787       -4.61333
H          9.55363        5.02152       -4.58174
H          8.96975        5.04065       -2.08967
H          8.83824        6.79143       -2.14926
H          7.46758        4.37094       -6.56693
H          7.42782        6.11833       -6.91066
H          5.91979        5.23640       -6.55895
H          6.41019        7.53437       -2.94918
H          5.21432        7.19722       -4.21458
H          6.68716        8.10906       -4.60965
