28

C          2.97735       -2.90380        0.90713
C          2.38618       -2.24366       -0.34356
C          3.09029       -0.93959       -0.72105
Ta         5.13603       -0.64834       -1.31757
C          6.49971       -0.05763        0.39276
C          6.83932       -0.59310        1.80770
C          8.19339       -1.35717        2.01266
F          8.24321       -2.50379        1.34010
F          9.24564       -0.58612        1.66571
F          8.31885       -1.64343        3.34113
F          6.88354        0.45632        2.70192
F          5.83676       -1.42763        2.21065
F          7.49418        0.81827        0.03331
F          5.33156        0.79100        0.66248
S          6.70182       -2.50575       -1.82212
O          6.45929       -3.40941       -0.68310
O          6.90949       -3.12810       -3.12237
F          8.27118       -1.89270       -1.49295
H          2.41627       -3.80949        1.18468
H          2.95159       -2.21827        1.76849
H          4.02453       -3.19382        0.73968
H          1.30619       -2.06603       -0.17941
H          2.46348       -2.94311       -1.19017
H          2.91619       -0.16226        0.05497
H          2.66805       -0.52918       -1.66925
H          4.89245        0.96185       -2.03476
H          4.56833       -2.10837       -2.11082
H          5.44829       -0.62777       -3.03861
