27

Cl         1.77859        1.41633       -0.34571
Ga         3.32714       -0.12702        0.34293
C          4.36054       -0.84247       -1.35497
C          4.40029       -0.11162       -2.72392
C          5.18336        1.25113       -2.72842
C          4.82432        2.21746       -3.91495
F          4.90133        1.58371       -5.10641
F          3.59852        2.74439       -3.78422
F          5.71645        3.24159       -3.93619
F          4.96097        1.94257       -1.58200
F          6.52204        1.00320       -2.82410
F          4.99821       -0.89415       -3.69209
F          3.12122        0.11795       -3.14502
F          5.70905       -1.05039       -1.01953
F          3.86665       -2.11013       -1.67540
C          4.55123        0.85391        1.62028
C          4.74367        0.15383        2.96655
S          5.85860       -1.28648        2.78963
C          5.71635       -1.98329        4.45762
H          2.52435       -1.35762        0.93296
H          4.06306        1.82527        1.79579
H          5.52669        1.07003        1.15772
H          3.78195       -0.22216        3.35512
H          5.18404        0.81625        3.73399
H          6.37279       -2.86246        4.50143
H          4.68508       -2.30195        4.66815
H          6.04014       -1.26417        5.22448
