38

O          1.34448       -0.30202        1.35665
C          2.33597       -0.50587        2.24082
O          2.13837       -0.79457        3.40843
C          3.72804       -0.30746        1.60634
C          3.68785       -0.10242        0.12517
C          4.06446        1.06689       -0.55135
C          4.50569        1.06080       -1.91978
C          4.86519        2.22197       -2.57314
C          4.80388        3.48174       -1.93333
C          4.34641        3.51416       -0.59134
C          3.98683        2.36242        0.07267
C          5.23699        4.71558       -2.61137
C          6.57132        5.39555       -2.11329
C          7.90604        4.55329       -2.07671
C          8.56010        3.96116       -3.38715
C          9.00361        4.89222       -4.58731
C         10.03839        6.04918       -4.32598
F         11.13288        5.59495       -3.68572
F         10.42658        6.54090       -5.52641
F          9.50593        7.05611       -3.61990
F          9.60138        4.05448       -5.48755
F          7.91709        5.43827       -5.17847
F          9.68991        3.31446       -2.96832
F          7.72989        3.03585       -3.92327
F          8.86222        5.36639       -1.51835
F          7.73516        3.49552       -1.24887
F          6.83399        6.52583       -2.84973
F          6.39088        5.79866       -0.81961
F          5.40131        4.54136       -3.97430
F          4.30524        5.76089       -2.46445
F          3.94962       -1.31257       -0.56649
H          1.88409       -0.10010        0.50131
H          4.33843       -1.18829        1.86566
H          4.19330        0.54784        2.12540
H          4.56588        0.10763       -2.44332
H          5.20605        2.16451       -3.60721
H          4.26325        4.47017       -0.07265
H          3.60919        2.44393        1.09323
