47

N          2.73457        2.00941       -0.10198
In         1.70723        0.32823        0.79565
C          3.32171       -0.98345        1.73319
C          4.61758       -0.50355        2.01726
C          5.62485       -1.30851        2.55511
C          5.36124       -2.66112        2.83159
C          4.09226       -3.18286        2.53805
C          3.10782       -2.35091        1.99797
C          6.42071       -3.52999        3.43696
C          6.82656       -3.24302        4.93630
C          5.71729       -3.17155        6.05427
C          4.82348       -4.42867        6.41221
C          5.53256       -5.74519        6.90460
C          4.56676       -6.76055        7.62807
F          3.46860       -7.00330        6.89001
F          5.22761       -7.92531        7.80592
F          4.18934       -6.30838        8.83731
F          6.06652       -6.39428        5.84275
F          6.52195       -5.45160        7.78892
F          4.00906       -4.00824        7.42780
F          4.04524       -4.73938        5.35012
F          6.35755       -2.80820        7.20687
F          4.84353       -2.18646        5.73642
F          7.74220       -4.17773        5.34028
F          7.44094       -2.02531        4.98001
F          6.08523       -4.86546        3.38881
F          7.62478       -3.40931        2.75606
C          0.93546       -0.92538       -0.90097
C          1.99148       -1.24228       -1.96474
C          1.48968       -2.10594       -3.13604
C          2.56055       -2.41385       -4.18903
H          3.66350        1.72096       -0.42530
H          2.92119        2.73284        0.59845
H          0.52781        0.90938        1.98746
H          4.85446        0.54504        1.80528
H          6.61569       -0.89493        2.75564
H          3.88280       -4.23675        2.72554
H          2.13435       -2.79922        1.77278
H          0.08536       -0.39290       -1.36036
H          0.52675       -1.86458       -0.48702
H          2.85205       -1.75839       -1.50004
H          2.39902       -0.30058       -2.37563
H          0.63627       -1.59522       -3.61541
H          1.08652       -3.05192       -2.73352
H          2.95729       -1.48765       -4.63332
H          2.16764       -3.03496       -5.00926
H          3.41192       -2.95137       -3.74313
