48

C          7.77657        6.48372       -3.72757
S          7.86367        5.00033       -2.68781
C          7.72740        3.70597       -3.97607
C          7.41232        2.34962       -3.35070
Ga         5.48940        2.06639       -2.65340
C          4.22452        3.10458       -3.87973
C          4.15837        2.86870       -5.26950
C          3.28088        3.56139       -6.10962
C          2.39940        4.53709       -5.59667
C          2.45015        4.77656       -4.20769
C          3.34119        4.08468       -3.38012
Si         1.27768        5.52747       -6.71242
C          0.49113        4.38587       -8.03076
C         -0.49456        5.09584       -8.96505
C         -1.07411        4.21327      -10.04896
F         -1.75858        3.14510       -9.55123
F         -1.95711        4.90305      -10.83999
F         -0.11957        3.71326      -10.88518
C         -0.11671        6.35163       -5.72837
C          2.25022        6.87555       -7.62945
C          5.16602        2.53030       -0.69433
N          5.12816        3.97850       -0.37584
H          7.85764        7.35635       -3.06670
H          6.81661        6.52694       -4.26052
H          8.60227        6.51186       -4.45377
H          8.67611        3.72406       -4.54547
H          6.91686        4.01699       -4.65543
H          8.15004        2.10965       -2.56485
H          7.55197        1.58202       -4.13135
H          5.18064        0.48732       -2.84091
H          4.80932        2.10824       -5.71615
H          3.28245        3.33320       -7.18224
H          1.78243        5.51990       -3.75882
H          3.36080        4.31429       -2.30959
H         -0.01245        3.55748       -7.50883
H          1.30357        3.93158       -8.61975
H         -0.02015        5.94212       -9.48546
H         -1.35318        5.50156       -8.40908
H         -0.73473        5.60299       -5.21246
H         -0.77282        6.94932       -6.37845
H          0.29007        7.02829       -4.96360
H          3.05323        6.42790       -8.23291
H          2.72474        7.55384       -6.90595
H          1.61844        7.48282       -8.29558
H          5.92668        1.97664       -0.10411
H          4.19205        2.08579       -0.42245
H          5.86725        4.46645       -0.88773
H          5.30727        4.14807        0.61736
