41

C          1.31135        1.20532        0.51916
C          2.70961        1.63638        0.06682
C          3.16591        0.95458       -1.22716
C          4.55390        1.38850       -1.70968
C          5.00408        0.68899       -3.00128
C          6.38439        1.11934       -3.50843
Ga         7.01999        0.12198       -5.13560
S          5.75970        1.20536       -7.00763
O          5.98860        2.65464       -7.07395
O          5.74249        0.48783       -8.28558
F          4.11970        1.11143       -6.49914
C          8.88539        0.51733       -5.81244
C          9.34520        1.97030       -5.66304
C         10.76695        2.18209       -6.21945
C         11.32396        3.57177       -5.99625
C         12.75949        3.79733       -6.56298
F         13.64339        2.94205       -5.99113
F         12.78943        3.59087       -7.90090
F         13.19559        5.05553       -6.32906
F         10.53344        4.53851       -6.57220
F         11.40515        3.87039       -4.64985
H          1.00715        1.70857        1.44900
H          1.27007        0.11989        0.69826
H          0.55853        1.43833       -0.24925
H          3.43870        1.42099        0.86716
H          2.73067        2.73072       -0.07345
H          2.42722        1.15477       -2.02323
H          3.15821       -0.14067       -1.07980
H          5.29588        1.19470       -0.91286
H          4.56072        2.48162       -1.87004
H          4.25297        0.87434       -3.78754
H          4.99248       -0.40320       -2.83286
H          7.14233        0.96086       -2.71819
H          6.39170        2.19974       -3.72756
H          6.56979       -1.39357       -5.26631
H          8.92949        0.20788       -6.86969
H          9.57247       -0.15568       -5.26757
H          9.33014        2.26500       -4.60196
H          8.64843        2.64409       -6.18389
H         10.78003        1.98500       -7.30220
H         11.46584        1.47091       -5.75185
