50

N          6.22465        1.92806       -1.31285
C          5.21730        1.19383       -1.96199
N          4.06158        1.65232       -2.34218
N          5.54153       -0.12323       -2.13077
C          4.62511       -1.10900       -2.66669
C          5.36153       -2.37087       -3.12831
C          6.17302       -2.25420       -4.43332
C          7.46686       -1.42995       -4.36760
Ta         9.32824       -1.94352       -3.46451
S          9.90244       -0.82293       -1.34782
O         10.85990        0.20589       -0.92560
O          8.49724       -0.35284       -1.71492
C          9.47127       -1.65930        0.36728
C         10.50542       -2.65602        0.99182
C         11.97114       -2.13492        1.19719
C         12.87481       -3.05606        2.09990
F         12.86908       -4.33234        1.67268
F         14.14515       -2.59707        2.04601
F         12.48027       -3.02937        3.38744
F         12.58070       -2.05257       -0.01219
F         11.96222       -0.91113        1.78340
F         10.02410       -3.03104        2.22390
F         10.56527       -3.76470        0.21184
F          9.24925       -0.65081        1.25324
F          8.31263       -2.36145        0.23691
C          9.55043       -4.02743       -4.37874
C          9.57269       -4.35573       -5.91189
C         10.94601       -4.30549       -6.67124
F         11.60089       -3.14232       -6.52897
F         11.76117       -5.30516       -6.27555
F         10.70952       -4.47935       -8.00177
F          9.10695       -5.62759       -6.15998
F          8.72286       -3.49707       -6.56628
F         10.65551       -4.70371       -3.85303
F          8.41607       -4.74760       -3.93170
H          6.21322        2.91536       -1.54446
H          7.16166        1.52641       -1.37401
H          4.00103        2.65375       -2.13923
H          6.44325       -0.43996       -1.78521
H          4.07232       -0.65045       -3.50249
H          3.86342       -1.38308       -1.91125
H          4.59718       -3.15042       -3.27849
H          6.01002       -2.73881       -2.31413
H          5.50560       -1.83427       -5.20905
H          6.41991       -3.27275       -4.76677
H          7.27113       -0.37105       -4.12993
H          7.96460       -1.43484       -5.37296
H         10.47276       -1.90708       -4.79190
H         10.37115       -0.51620       -3.56957
H          9.41987       -3.17790       -2.20116
