61

S          1.07110       -1.56708       -0.96926
C          2.92224       -1.57983       -0.95189
C          3.45236       -0.38256       -1.74450
C          4.97874       -0.34287       -1.84005
Ga         5.63618        1.41632       -2.67237
C          4.48602        1.80843       -4.31663
C          3.33076        2.60853       -4.18687
C          2.45890        2.84955       -5.25226
C          2.70310        2.30801       -6.53216
C          3.86569        1.52410       -6.68278
C          4.72306        1.28418       -5.60288
Si         1.48818        2.54321       -7.93221
C          0.84847        4.34571       -7.94189
C         -0.20838        4.62266       -9.01679
C         -0.72269        6.04573       -9.03778
F          0.26115        6.95746       -9.28260
F         -1.66599        6.22343      -10.01710
F         -1.31288        6.41004       -7.86459
C          2.30025        2.18928       -9.60773
C         -0.01032        1.39722       -7.72852
C          7.64327        1.44428       -3.05076
C          8.32815        2.69386       -2.48445
C          9.84728        2.76747       -2.70730
C         10.51333        4.00555       -2.09586
C         12.02645        4.07619       -2.32800
C         12.68924        5.30344       -1.69580
H          0.87767       -2.66798       -0.20441
H          3.27047       -2.52316       -1.39550
H          3.26236       -1.53100        0.09225
H          3.07762        0.54307       -1.27301
H          3.01543       -0.40284       -2.75733
H          5.34969       -1.21997       -2.39892
H          5.42320       -0.39530       -0.82975
H          5.26151        2.58706       -1.61125
H          3.10803        3.05742       -3.21293
H          1.57159        3.46972       -5.07970
H          4.10636        1.08870       -7.65854
H          5.60908        0.66250       -5.77473
H          1.71259        5.01459       -8.07684
H          0.43554        4.57157       -6.94632
H         -1.09252        3.98098       -8.88513
H          0.18342        4.42747      -10.02671
H          3.15637        2.85704       -9.78037
H          1.59088        2.31982      -10.43829
H          2.67075        1.15540       -9.65384
H         -0.53007        1.60232       -6.78138
H          0.32018        0.34919       -7.69727
H         -0.73768        1.49635       -8.54852
H          7.82114        1.38368       -4.13975
H          8.10473        0.54068       -2.61281
H          8.12654        2.76295       -1.40001
H          7.86390        3.59954       -2.91561
H         10.05493        2.73923       -3.79259
H         10.31602        1.85855       -2.28754
H         10.31173        4.02757       -1.00950
H         10.04017        4.91596       -2.50615
H         12.22537        4.06876       -3.41349
H         12.49530        3.15973       -1.93005
H         12.26179        6.23541       -2.09656
H         13.77324        5.32623       -1.88321
H         12.53854        5.31759       -0.60543
