33

C          0.75020        0.09448        0.43308
O          2.07937        0.55511        0.56811
C          2.65948        0.88955       -0.68945
C          4.08747        1.36570       -0.46319
O          4.59767        1.73243       -1.72910
C          5.95803        2.20992       -1.67083
C          6.42252        2.58706       -3.05154
Sb         8.39941        3.61420       -3.01637
S          9.50448        1.23539       -4.34760
O          8.42916        0.63178       -5.17679
O         10.85663        1.29246       -4.94711
C          9.72516       -0.10602       -2.95004
F         10.69268        0.25239       -2.06789
F          8.56814       -0.25165       -2.23860
F         10.05063       -1.32341       -3.44782
C         10.52222        4.59126       -3.07457
F         10.94068        4.90702       -4.33847
F         10.54572        5.78562       -2.36793
F         11.50133        3.81970       -2.51611
H          0.37992       -0.13484        1.44076
H          0.69502       -0.82131       -0.18723
H          0.09525        0.86104       -0.02538
H          2.07705        1.69087       -1.18534
H          2.66125        0.01117       -1.36377
H          4.69027        0.55776       -0.00199
H          4.09043        2.22473        0.23910
H          6.60221        1.42001       -1.24003
H          5.99357        3.07886       -0.97964
H          5.75589        3.33207       -3.51056
H          6.51741        1.72057       -3.71744
H          8.94698        2.81015       -1.54471
H          7.75931        5.06172       -2.28831
H          8.25755        4.05754       -4.71353
