80

C         16.32935        1.88651       -3.72809
C         15.83490        0.80652       -2.76259
C         14.62181        0.03158       -3.28727
C         14.11917       -1.04903       -2.32526
C         12.89737       -1.81852       -2.83753
C         12.40257       -2.89676       -1.86819
C         11.16827       -3.66342       -2.36138
C         10.68994       -4.74984       -1.38693
Si         9.14460       -5.74812       -1.89273
C          8.75748       -7.00278       -0.55847
C          8.42895       -6.58917        0.75334
C          8.19455       -7.51877        1.76646
C          8.25472       -8.90728        1.55341
C          8.56860       -9.31089        0.24405
C          8.81961       -8.39001       -0.78402
P          8.09232       -9.99613        3.24125
C          6.47119      -11.06186        2.74774
C          5.20308      -10.36349        3.25117
C          5.01825      -10.40201        4.77178
C          6.29587      -11.46619        1.28069
C          9.30080      -11.41805        2.65320
C         10.70783      -11.20371        3.19246
C         11.71031      -12.34133        2.92767
C         12.06070      -12.54126        1.44922
C         13.09656      -13.64066        1.19725
C         13.44550      -13.81536       -0.28348
C          7.69806       -4.54057       -2.12654
C          9.48338       -6.60069       -3.55281
H         17.19824        2.42570       -3.32459
H         15.54159        2.62788       -3.93077
H         16.62617        1.45040       -4.69387
H         15.57763        1.26750       -1.79393
H         16.65336        0.09761       -2.55142
H         14.87821       -0.43183       -4.25663
H         13.80247        0.74138       -3.49973
H         13.87349       -0.58468       -1.35386
H         14.93731       -1.76175       -2.11960
H         13.14043       -2.28422       -3.80930
H         12.07795       -1.10603       -3.04071
H         12.17092       -2.43322       -0.89300
H         13.21813       -3.61523       -1.67297
H         11.39960       -4.11495       -3.34233
H         10.35459       -2.94071       -2.54903
H         10.48202       -4.30105       -0.39957
H         11.50140       -5.47697       -1.20890
H          8.36434       -5.51940        0.98764
H          7.96423       -7.17082        2.78178
H          8.62801      -10.37357       -0.00295
H          9.07042       -8.76941       -1.78048
H          7.21414       -8.89749        3.73782
H          8.06280      -10.65295        4.59084
H          9.25477       -9.17220        3.69017
H          6.62479      -11.97964        3.34617
H          4.31062      -10.81123        2.76876
H          5.22944       -9.30652        2.92284
H          4.94020      -11.44144        5.13038
H          4.10585       -9.86685        5.08190
H          5.87681       -9.94164        5.27849
H          6.14837      -10.58861        0.63330
H          5.40918      -12.11715        1.15112
H          7.16385      -12.01886        0.89345
H          9.31314      -11.51245        1.55790
H          8.87492      -12.35034        3.06304
H         10.63863      -11.03716        4.28269
H         11.11864      -10.26517        2.77841
H         11.30503      -13.28651        3.33339
H         12.64530      -12.14303        3.48554
H         12.43670      -11.58727        1.03721
H         11.14344      -12.77167        0.88226
H         12.71696      -14.59545        1.60063
H         14.01459      -13.41625        1.76797
H         12.55158      -14.07168       -0.87223
H         14.18901      -14.61122       -0.44060
H         13.85685      -12.88557       -0.70518
H          7.45021       -4.03770       -1.18055
H          6.79905       -5.08054       -2.45676
H          7.92365       -3.76585       -2.87468
H         10.34459       -7.28101       -3.48690
H          9.69637       -5.86218       -4.33968
H          8.61515       -7.19260       -3.87640
