35

C          2.43321        1.71714       -0.47763
S          3.40417        0.19135       -0.19198
O          4.71662        0.67687        0.32057
O          2.57349       -0.59425        0.75516
In         3.84673       -1.12070       -2.45975
C          2.08766       -0.54246       -3.88487
C          2.24057        0.46522       -5.05156
C          2.31698        1.97686       -4.66721
F          3.28336        2.20340       -3.75197
F          2.61042        2.71388       -5.76806
F          1.14886        2.43022       -4.17343
F          3.39752        0.16801       -5.72962
F          1.20890        0.37181       -5.95991
F          1.73887       -1.73706       -4.52792
F          0.93957       -0.15236       -3.18828
C          5.88428       -0.50914       -3.10128
C          6.29961        0.93433       -2.80648
C          7.77419        1.18568       -3.17951
C          8.22507        2.61965       -2.99149
C          9.72501        2.87891       -3.33486
F         10.53642        2.13695       -2.54344
F          9.98909        2.54971       -4.62338
F         10.05768        4.17780       -3.16505
F          7.50354        3.48241       -3.79199
F          8.05631        3.04225       -1.69435
H          2.27956        2.15228        0.51911
H          1.47581        1.44902       -0.93967
H          3.00828        2.39827       -1.11528
H          3.53732       -2.80039       -2.07389
H          5.96659       -0.72735       -4.17880
H          6.55710       -1.21092       -2.58201
H          6.15009        1.16071       -1.74054
H          5.67088        1.63590       -3.37270
H          7.95254        0.92168       -4.23376
H          8.43124        0.54732       -2.56883
