28

C          2.20860       -0.95901        2.07581
C          3.14744       -0.44946        0.97553
C          3.69102       -1.55269        0.04828
C          4.58805       -1.04123       -1.08301
In         5.38072       -2.60543       -2.48860
C          3.86005       -4.23698       -2.83210
C          4.24661       -5.72149       -2.77967
C          4.46014       -6.25049       -1.36124
N          4.66274       -7.71554       -1.37187
I          7.62140       -3.66063       -0.92743
H          1.83606       -0.13998        2.71117
H          2.71753       -1.68281        2.73087
H          1.33267       -1.46909        1.64483
H          3.99931        0.08169        1.43420
H          2.61954        0.30185        0.36212
H          2.82936       -2.10740       -0.36758
H          4.24485       -2.28612        0.66170
H          5.46949       -0.52923       -0.66390
H          4.04336       -0.29299       -1.68648
H          6.14463       -2.00215       -3.97260
H          3.47081       -3.99740       -3.83596
H          3.02811       -4.05072       -2.12996
H          5.16239       -5.91964       -3.36031
H          3.45299       -6.34504       -3.24679
H          3.59769       -5.93981       -0.73472
H          5.35789       -5.78568       -0.92587
H          3.79578       -8.17805       -1.65590
H          4.86669       -8.04645       -0.42744
