78

N          2.04138        0.97866        2.22063
B          2.14223        0.43044        0.77535
C          0.70088        0.05546        0.07689
C         -0.47581        0.79113        0.33866
C         -1.70799        0.47940       -0.22955
C         -1.81847       -0.61321       -1.10858
C         -0.67266       -1.37258       -1.39349
C          0.54685       -1.03726       -0.80353
C         -3.14633       -0.96816       -1.69611
C         -3.72775       -0.02463       -2.81874
C         -2.91709        0.20706       -4.15026
C         -2.65525       -0.97451       -5.17393
C         -3.89277       -1.75677       -5.75534
C         -3.58037       -2.56683       -7.07159
F         -2.48570       -3.33607       -6.92586
F         -4.63306       -3.37042       -7.33857
F         -3.40347       -1.75037       -8.12538
F         -4.33381       -2.64941       -4.83795
F         -4.89949       -0.89625       -6.06039
F         -2.01539       -0.39149       -6.23395
F         -1.80852       -1.87135       -4.61767
F         -3.59143        1.17275       -4.84518
F         -1.69224        0.69473       -3.83901
F         -4.96983       -0.47274       -3.18565
F         -3.88719        1.21865       -2.28089
F         -3.15703       -2.23939       -2.23071
F         -4.14289       -0.94666       -0.72728
C          2.94964        1.48062       -0.18543
C          3.15191        1.26106       -1.56446
C          3.86542        2.15020       -2.37009
C          4.40983        3.34354       -1.84849
C          4.21165        3.57378       -0.47151
C          3.51388        2.66589        0.33044
Si         5.37513        4.55659       -2.90070
C          5.12230        4.21135       -4.75663
C          3.68907        4.34924       -5.29449
C          3.56120        3.99321       -6.78081
C          2.12590        4.03486       -7.31365
C          2.02151        3.69898       -8.80450
C          0.58856        3.69452       -9.34416
C          0.49961        3.38673      -10.84236
C         -0.93452        3.37533      -11.37635
C          4.84499        6.33914       -2.51847
C          7.23853        4.42941       -2.55423
H          1.60887        0.29874        2.84720
H          1.47338        1.82688        2.29920
H          2.79552       -0.62585        0.79968
H         -0.42406        1.63515        1.03357
H         -2.59278        1.06956        0.01662
H         -0.74485       -2.23413       -2.05898
H          1.42005       -1.66212       -1.01333
H          2.73352        0.36110       -2.02555
H          3.99515        1.91051       -3.43053
H          4.61251        4.48328       -0.00885
H          3.40974        2.86157        1.40132
H          5.49311        3.19055       -4.95976
H          5.79757        4.88432       -5.31604
H          3.32804        5.38076       -5.13911
H          3.01139        3.70520       -4.71046
H          3.97550        2.98185       -6.94189
H          4.19497        4.67622       -7.37537
H          1.69483        5.03582       -7.13409
H          1.50418        3.33019       -6.73477
H          2.47861        2.70980       -8.98549
H          2.62619        4.42058       -9.38292
H          0.11933        4.67481       -9.14652
H         -0.01037        2.95538       -8.78395
H          0.97370        2.41008      -11.03920
H          1.09574        4.12965      -11.39973
H         -1.54285        2.61530      -10.86387
H         -0.96557        3.15742      -12.45360
H         -1.42403        4.34841      -11.21862
H          3.77690        6.49047       -2.72886
H          5.41989        7.06338       -3.11530
H          5.00662        6.57650       -1.45699
H          7.61324        3.42461       -2.79683
H          7.44658        4.60918       -1.48943
H          7.81297        5.16164       -3.14220
