34

N          1.05024        0.57848        2.46852
C          2.48797        0.91278        2.53767
C          3.10784        0.74444        1.14438
C          4.68151        0.76432        1.06949
C          5.09755       -0.74936        1.14703
C          6.61758       -1.17090        1.47348
F          7.48865       -0.14572        1.45991
F          6.72166       -1.80792        2.64986
F          7.05536       -2.05822        0.52245
F          4.34429       -1.40972        2.08351
F          4.76816       -1.37399       -0.04703
C          5.16708        1.45775       -0.22461
C          6.19362        0.88559       -1.00553
C          6.70731        1.48705       -2.15291
C          6.18868        2.70240       -2.59443
C          5.14723        3.27392       -1.87310
C          4.63400        2.69129       -0.69979
C          3.49014        3.52604       -0.12128
O          2.59376        3.90494       -0.87348
O          3.55933        3.87757        1.14252
C          5.28669        1.47508        2.37973
O          5.32414        2.75050        2.38383
O          5.65279        0.72153        3.28996
H          0.60143        0.82284        3.35245
H          0.94442       -0.43395        2.36825
H          3.04390        0.31354        3.27616
H          2.57165        1.96614        2.84194
H          2.69129        1.51461        0.48852
H          2.76003       -0.20841        0.71668
H          6.61653       -0.07700       -0.74261
H          7.50758        0.98725       -2.70244
H          6.57364        3.18792       -3.49319
H          4.68113        4.19958       -2.21188
H          4.39793        3.38922        1.64858
