37

C          2.20354       -1.44890        0.75399
C          2.00206       -0.01716        0.25808
C          2.60296        1.08387        1.16156
C          4.10419        1.04655        1.44528
S          5.11208        1.46446        0.21226
O          6.52257        1.10361        0.42651
O          4.50176        1.23087       -1.10720
C          5.32427        3.41522        0.04805
C          5.92282        4.05008       -1.24586
C          7.33430        3.55894       -1.71545
F          8.24671        3.64241       -0.72805
F          7.30755        2.30955       -2.19093
F          7.75849        4.37135       -2.73021
F          5.07294        3.88312       -2.29337
F          6.05505        5.41828       -1.05252
F          4.07233        3.98942        0.17433
F          6.07656        3.89482        1.09648
C          4.55003        0.87780        2.90056
C          4.66598       -0.61289        3.33068
C          5.80073       -1.39295        2.66286
C          5.79087        1.66468        3.35761
H          1.75291       -2.17746        0.06229
H          1.74788       -1.60597        1.74575
H          3.27421       -1.68110        0.83695
H          0.92030        0.18559        0.15132
H          2.44761        0.08689       -0.74056
H          2.09625        1.04011        2.14377
H          2.30435        2.05153        0.72132
H          3.71007        1.27980        3.50237
H          3.70862       -1.11152        3.11453
H          4.79002       -0.64575        4.42987
H          5.73250       -1.31307        1.56932
H          5.76543       -2.45765        2.94149
H          6.78774       -1.00317        2.95011
H          6.68199        1.40577        2.77379
H          5.99296        1.45347        4.42070
H          5.63087        2.74426        3.24681
