52

C         13.04757        9.50160        0.67418
O         13.28037        8.11203        0.75362
C         12.79105        7.41698       -0.39222
C         12.80390        5.92214       -0.14169
O         11.71931        5.58894        0.69054
C         11.63321        4.18184        0.96699
C         10.35484        3.88590        1.71126
As         8.55050        4.12118        0.69725
C          9.34264        3.36853       -1.09346
C          9.49954        1.99439       -1.33365
C          9.95167        1.52934       -2.57219
C         10.26451        2.41842       -3.62401
C         10.09919        3.79647       -3.37676
C          9.64758        4.25457       -2.13375
Si        10.82482        1.76620       -5.28116
C          9.36513        0.84308       -6.10406
C          9.67638        0.23101       -7.47357
C          8.50378       -0.47277       -8.12239
F          7.45154        0.36281       -8.35229
F          8.84799       -1.00435       -9.33899
F          8.02862       -1.50643       -7.37219
C         11.36275        3.17382       -6.43034
C         12.26650        0.54829       -5.08894
F          8.15208        2.25266        1.24154
H         13.44407        9.95269        1.59388
H         11.96705        9.73049        0.59997
H         13.55865        9.95967       -0.19745
H         13.42034        7.65756       -1.27441
H         11.75255        7.72962       -0.61237
H         13.77388        5.63104        0.31745
H         12.72758        5.39736       -1.11801
H         12.53229        3.88474        1.55506
H         11.67280        3.61928        0.01268
H         10.24988        4.54115        2.59039
H         10.33763        2.83915        2.04045
H          8.83071        5.59547        0.22149
H          7.89433        4.59187        2.06971
H          7.13491        4.06266       -0.00318
H          9.24514        1.29734       -0.53140
H         10.06221        0.44835       -2.72200
H         10.32921        4.52383       -4.16275
H          9.52798        5.33171       -1.96630
H          8.53142        1.55777       -6.18863
H          9.02635        0.06032       -5.40719
H         10.48204       -0.51602       -7.40725
H         10.00521        0.99721       -8.19210
H         10.53196        3.86349       -6.63654
H         11.72860        2.78952       -7.39420
H         12.17612        3.75778       -5.97662
H         12.00155       -0.27139       -4.40570
H         13.14011        1.06140       -4.66257
H         12.57170        0.10527       -6.04886
