35

S          1.02389       -0.52617       -0.52127
In         3.46560       -0.99136       -0.46781
S          4.29841       -0.84641        2.19321
O          3.31211       -1.12818        3.25604
O          5.57401       -1.59955        2.24291
C          5.01537        0.95756        2.71932
C          3.96969        2.07141        2.98217
C          4.54051        3.54228        3.04918
C          3.58830        4.60748        3.70367
F          2.36360        4.58075        3.14476
F          3.46548        4.41637        5.03002
F          4.10992        5.84431        3.51236
F          5.69459        3.56057        3.77447
F          4.81438        3.98043        1.79127
F          3.04787        2.04954        1.97274
F          3.33222        1.82204        4.15942
F          5.76432        0.77673        3.83996
F          5.85025        1.38008        1.71276
C          4.65487        0.60811       -1.41000
C          6.13851        0.26798       -1.57084
C          6.96624        1.38179       -2.22994
C          8.43797        1.00725       -2.39166
N          9.19945        2.08801       -3.04542
H          1.18477        0.81093       -0.65144
H          3.73570       -2.71201       -0.59975
H          4.52374        1.51753       -0.80500
H          4.18587        0.80465       -2.38832
H          6.24922       -0.65454       -2.16812
H          6.57713        0.03927       -0.58554
H          6.89334        2.30689       -1.63553
H          6.53862        1.61572       -3.22298
H          8.50261        0.03819       -2.92828
H          8.88021        0.84387       -1.39550
H          8.83622        2.23727       -3.98936
H         10.17656        1.81197       -3.15707
