33

N          4.46528       -0.92088       -5.65373
C          3.39717       -0.85772       -4.78115
N          2.29070       -1.54278       -4.87047
N          3.48272        0.09384       -3.76947
C          4.74400        0.41856       -3.11375
C          4.74666        1.78441       -2.42134
C          6.19002        2.26024       -2.16906
C          6.86795        2.82513       -3.44499
C          8.12373        2.12480       -4.01240
S          9.52620        2.45163       -2.74656
O         10.03647        3.78011       -3.12479
O          9.18462        2.21652       -1.35075
C         11.01489        1.27646       -3.13364
F         11.02118        0.86887       -4.41119
F         12.14197        2.00900       -2.92294
F         11.05940        0.22491       -2.31389
C          7.91096        0.58340       -4.23154
O          7.17493        0.30643       -5.21444
O          8.44116       -0.15101       -3.37047
O          8.55481        2.74805       -5.19149
H          4.51228       -1.76728       -6.20513
H          5.38519       -0.51780       -5.43337
H          2.29903       -2.11058       -5.72305
H          2.67529       -0.00179       -3.15775
H          5.52485        0.43012       -3.88050
H          5.04380       -0.35841       -2.38339
H          4.19437        1.73313       -1.46744
H          4.21302        2.51107       -3.05663
H          6.78271        1.42637       -1.76635
H          6.19842        3.03403       -1.38888
H          7.10726        3.89440       -3.31425
H          6.17314        2.76771       -4.29883
H          8.84424        3.64857       -4.94285
