17

N          1.07334       -0.36067       -0.16398
C          2.53016       -0.08081        0.02534
C          3.03071       -0.43889        1.40846
Ga         5.05125       -0.15154        1.65799
N          5.35912        1.77902        1.58084
N          6.13982       -1.04209        0.27780
H          0.73382        0.11323       -1.00765
H          0.57447        0.07124        0.61865
H          2.76721        0.98295       -0.18250
H          3.06778       -0.67612       -0.73395
H          2.79356       -1.49355        1.63123
H          2.51805        0.18009        2.16855
H          5.56338       -0.72510        3.07522
H          5.01535        2.15062        0.68931
H          6.37049        1.94049        1.54456
H          5.74211       -0.90086       -0.65643
H          6.11569       -2.05736        0.41830
