57

C          8.33757        1.74168       -0.34441
C          6.89766        1.27334       -0.09173
C          6.65863       -0.20826       -0.32356
As         4.87181       -0.75055        0.62722
C          3.89164       -1.40556       -1.10585
C          4.44828       -2.12381       -2.16672
C          3.67204       -2.50169       -3.27356
C          2.31486       -2.16328       -3.35273
C          1.75662       -1.43335       -2.28888
C          2.53661       -1.06878       -1.18940
C          1.47204       -2.56449       -4.54045
C          5.54893       -2.70460        1.13538
C          6.65512       -2.84214        1.98332
C          7.02075       -4.07383        2.52853
C          6.26628       -5.21910        2.21989
C          5.15146       -5.10323        1.37395
C          4.80380       -3.85579        0.85028
C          6.66261       -6.54445        2.79238
C          6.29023       -6.82966        4.29751
C          4.77114       -6.85936        4.73607
C          3.82519       -7.94811        4.09268
C          2.51565       -8.21907        4.93600
C          1.37165       -8.94963        4.13772
F          1.83674      -10.05838        3.52942
F          0.40758       -9.31730        5.01082
F          0.81886       -8.14439        3.21775
F          2.82346       -9.00916        5.99762
F          1.99604       -7.05124        5.39248
F          3.44611       -7.53356        2.85688
F          4.48017       -9.13141        3.97732
F          4.78301       -7.09291        6.08751
F          4.22540       -5.64135        4.52035
F          6.84159       -8.02120        4.67752
F          6.85818       -5.85542        5.06723
F          6.13958       -7.60126        2.07355
F          8.03967       -6.70045        2.77076
H          8.45787        2.81970       -0.14350
H          8.64344        1.55833       -1.38626
H          9.04485        1.20064        0.30383
H          6.20744        1.86230       -0.71761
H          6.62543        1.51107        0.95592
H          7.44506       -0.81942        0.14482
H          6.60576       -0.45812       -1.39318
H          4.27257        0.72582        0.36810
H          5.56557       -0.25588        2.00912
H          3.51681       -1.14261        1.41069
H          5.50198       -2.41846       -2.13471
H          4.12728       -3.07528       -4.08800
H          0.69684       -1.15761       -2.32539
H          2.08291       -0.51506       -0.35725
H          2.02870       -3.22608       -5.21894
H          1.14795       -1.68663       -5.12307
H          0.55888       -3.09438       -4.22702
H          7.23556       -1.95066        2.24727
H          7.89058       -4.15410        3.18340
H          4.56660       -5.98843        1.12134
H          3.92412       -3.77948        0.20455
