18

O          2.20519       -0.25536        0.80426
C          3.07044        0.08259       -0.23302
O          3.67460        1.12141       -0.17491
C          3.06735       -0.95512       -1.35996
N          4.03198       -0.74436       -2.40280
S          5.13110       -1.82930       -2.57648
O          4.81317       -3.16666       -2.04847
O          5.75693       -1.74051       -3.89066
C          6.58472       -1.36734       -1.41348
C          7.39371       -0.07758       -1.74726
F          6.60745        0.99896       -1.88923
F          8.27885        0.19237       -0.73470
F          8.12615       -0.23019       -2.87183
F          6.08961       -1.21206       -0.13985
F          7.49934       -2.39088       -1.36562
H          1.86433       -1.14928        0.61997
H          2.04008       -0.89855       -1.78331
H          3.14100       -1.96126       -0.89297
