25

C          2.39158       -1.31988       -0.97643
C          2.73937       -0.01449       -0.25810
C          3.04625       -0.17110        1.25106
C          4.26439       -0.97020        1.64651
S          5.71501       -0.22476        1.67717
O          5.70261        1.21391        1.91505
O          6.75612       -1.05045        2.33099
F          6.39921       -0.22641        0.05468
C          4.27023       -2.47544        1.80892
C          5.02128       -3.32698        0.72150
C          6.06030       -4.27835        1.29592
O          6.03991       -5.48866        1.12613
O          7.04073       -3.70856        2.02309
H          2.14382       -1.14496       -2.03450
H          1.52432       -1.81395       -0.50809
H          3.23218       -2.02593       -0.94727
H          1.89943        0.69601       -0.37081
H          3.61327        0.45029       -0.74150
H          2.16574       -0.63335        1.73855
H          3.13391        0.84066        1.67833
H          3.21981       -2.80363        1.83439
H          4.68933       -2.74436        2.79368
H          5.54199       -2.64070        0.03583
H          4.32422       -3.93301        0.12896
H          6.92127       -2.71081        2.08265
