53

C          1.19833       -0.67738        1.84107
O          2.58240       -0.56755        1.58768
C          3.13601       -1.78166        1.08750
C          4.63712       -1.64606        0.91631
O          5.28299       -1.77993        2.16456
C          6.72259       -1.61858        2.05498
C          7.39923       -1.91106        3.36286
Sb         9.67540       -1.70953        3.15818
C          9.50004        0.61096        3.43545
C          8.64863        1.13631        4.42118
C          8.61490        2.49766        4.74669
C          9.46425        3.39140        4.08980
C         10.33589        2.90650        3.11455
C         10.34541        1.53460        2.78626
C         11.28766        1.13022        1.68168
O         10.97072        0.68891        0.60265
O         12.61733        1.39566        1.94483
C          9.81295       -1.85403        5.46825
C          9.17539       -2.92117        6.11514
C          9.23013       -3.06861        7.50748
C          9.93773       -2.14878        8.29123
C         10.59250       -1.09288        7.65664
C         10.52875       -0.95123        6.25843
C         11.32881       -0.06748        8.47379
F         11.54796       -0.46586        9.76282
F         12.55195        0.23785        7.94946
F         10.64795        1.11864        8.55511
C          8.54723       -4.21237        8.20330
F          7.78751       -4.97016        7.37163
F          9.44106       -5.06722        8.80006
F          7.71949       -3.78772        9.21173
H          0.85387        0.30017        2.20382
H          0.98030       -1.44278        2.61141
H          0.63043       -0.93904        0.92483
H          2.67345       -2.02578        0.10796
H          2.92051       -2.61551        1.78445
H          4.86266       -0.66644        0.44648
H          4.98208       -2.43431        0.21219
H          6.93522       -0.58459        1.71743
H          7.09010       -2.29965        1.26111
H          7.21909       -2.94860        3.67713
H          7.04691       -1.23542        4.15263
H          9.84501       -3.49306        3.15871
H         11.44152       -1.43383        3.12248
H          9.54287       -1.61469        1.39891
H          7.99680        0.45843        4.97843
H          7.93571        2.85936        5.52287
H          9.45272        4.45544        4.33478
H         10.99964        3.59607        2.58453
H         12.67878        1.65220        2.88221
H          8.62485       -3.65830        5.52467
H          9.97879       -2.25521        9.37463
H         11.04525       -0.10875        5.78871
