48

C          5.76736        0.76733        2.99889
C          5.06363        1.50762        1.84791
Al         3.17838        0.94074        1.35489
C          1.99761        0.90868        3.02236
C          2.11264        1.88783        4.03505
C          1.30036        1.90011        5.17193
C          0.30923        0.91560        5.37315
C          0.17836       -0.06948        4.37497
C          0.99973       -0.06435        3.24195
Si        -0.78769        0.96176        6.88841
C         -1.87011        2.53682        6.84220
C         -2.68814        2.67606        5.55355
C         -3.57462        3.90048        5.51910
F         -2.87439        5.06408        5.64028
F         -4.27641        3.98680        4.34974
F         -4.50339        3.90196        6.52501
C         -1.92816       -0.54832        6.95369
C          0.23004        1.03924        8.48238
C          3.07814       -0.92435        0.49676
C          3.68402       -2.08992        1.28313
C          3.58293       -3.49127        0.67776
O          4.00965       -4.50740        1.19165
O          2.96036       -3.54219       -0.53484
H          6.76653        1.17318        3.24480
H          5.91123       -0.30061        2.76912
H          5.17071        0.80442        3.92458
H          5.68753        1.45044        0.93573
H          5.02243        2.58809        2.08392
H          2.54354        1.99288        0.26253
H          2.86789        2.67543        3.93368
H          1.44494        2.69033        5.91853
H         -0.57325       -0.85852        4.48343
H          0.85020       -0.85751        2.50071
H         -1.20661        3.40928        6.95312
H         -2.53771        2.53522        7.71931
H         -3.35442        1.81338        5.40047
H         -2.02827        2.73144        4.67487
H         -2.57787       -0.61597        6.06941
H         -2.57453       -0.50669        7.84290
H         -1.34529       -1.47891        7.00475
H          0.91573        1.89847        8.47001
H          0.84017        0.13187        8.59468
H         -0.41394        1.13150        9.36951
H          3.56849       -0.81239       -0.48877
H          1.99903       -1.09058        0.30861
H          3.24365       -2.16865        2.29147
H          4.75874       -1.92873        1.46785
H          2.70964       -2.60482       -0.72122
