26

C          1.11200        0.43009       -0.57684
C          2.57881        0.13441       -0.25246
C          3.05668        0.79051        1.04642
C          4.52502        0.50053        1.37954
C          5.03411        1.18502        2.65566
C          4.37165        0.66883        3.95532
C          4.92925        1.21733        5.22929
S          4.33902        2.62663        5.88030
O          2.87620        2.68919        5.90858
O          5.12326        2.96445        7.08130
F          4.66147        4.12124        4.92058
O          6.32885        1.00857        5.38502
H          0.79286       -0.05184       -1.51326
H          0.94077        1.51229       -0.68122
H          0.45048        0.07211        0.22668
H          3.21701        0.47299       -1.08757
H          2.72746       -0.95736       -0.18319
H          2.41308        0.45436        1.87612
H          2.91172        1.88340        0.97933
H          5.14837        0.81035        0.52093
H          4.66258       -0.59340        1.47377
H          4.87562        2.27426        2.59129
H          6.12162        1.03463        2.73920
H          4.46849       -0.43677        3.97411
H          3.29444        0.89076        3.95052
H          6.52220        1.37353        6.26815
