31

I          1.67328       -1.45511       -0.88729
Ta         3.80354       -0.46241        0.50349
S          5.16400        1.62580        0.60242
O          6.35435        1.39542        1.45571
O          5.40713        2.21648       -0.73439
C          4.35098        3.15473        1.54680
C          3.55392        4.16250        0.66568
F          4.36259        4.84234       -0.16907
F          2.59402        3.55738       -0.05653
F          2.93545        5.08854        1.46410
F          3.53507        2.74373        2.55351
F          5.38018        3.85881        2.10450
C          5.47723       -0.96598       -0.78312
C          6.99295       -0.94927       -0.58668
C          7.45266       -1.70282        0.66610
C          8.96583       -1.64622        0.89355
C          9.41288       -2.42499        2.13382
H          3.75548       -1.70417        1.77241
H          3.79963        0.21455        2.11992
H          2.78637        0.97463        0.48926
H          5.20423       -0.48427       -1.74225
H          5.12122       -2.02676       -0.85783
H          7.33477        0.09477       -0.52474
H          7.49469       -1.38844       -1.47109
H          7.13133       -2.75864        0.59951
H          6.94437       -1.27320        1.54480
H          9.26969       -0.59101        0.99071
H          9.48877       -2.03743        0.00268
H          8.91991       -2.03712        3.03769
H         10.49991       -2.35916        2.29075
H          9.15081       -3.49126        2.04912
