73

C          5.22790        1.91500        2.74074
C          4.15815        1.80115        1.64492
Ga         3.00237        0.12842        1.83969
C          1.67806        0.37518        3.38830
C          1.58859        1.57414        4.12554
C          0.71807        1.72904        5.20887
C         -0.13946        0.68412        5.61444
C         -0.06861       -0.51861        4.88088
C          0.81969       -0.66181        3.80984
Si        -1.29490        0.91894        7.06560
C         -2.11734        2.64297        6.94394
C         -2.76680        2.90655        5.58014
C         -3.60827        4.16598        5.45984
C         -2.93416        5.57833        5.62381
C         -1.67231        5.95417        4.75804
C         -1.74313        6.01208        3.17713
C         -2.76957        7.00352        2.51085
C         -2.47667        7.31016        0.99196
F         -2.30899        6.17610        0.29063
F         -3.53417        7.97809        0.48390
F         -1.38612        8.08211        0.84899
F         -4.01442        6.47504        2.57920
F         -2.75890        8.19653        3.16298
F         -0.49441        6.39161        2.77942
F         -1.97942        4.76441        2.70635
F         -1.25976        7.17925        5.18820
F         -0.68783        5.05881        5.04284
F         -3.87966        6.53820        5.40034
F         -2.52256        5.70298        6.91990
F         -4.24126        4.18036        4.23428
F         -4.61341        4.15974        6.40790
C         -2.65523       -0.39931        7.08988
C         -0.38425        0.87504        8.72618
C          1.96304       -0.44315        0.15846
C          0.64600        0.28557       -0.13217
C          0.77487        1.81183       -0.22747
C          1.67870        2.27777       -1.36763
N          1.69012        3.73397       -1.43687
C          2.32513        4.42955       -2.43988
N          3.06830        3.96591       -3.39022
N          2.08613        5.81896       -2.37335
H          5.90097        2.78519        2.61993
H          5.86001        1.01265        2.76576
H          4.77422        1.99702        3.74229
H          4.64914        1.75936        0.65651
H          3.53842        2.71596        1.62850
H          3.96307       -1.11062        2.24352
H          2.22861        2.41916        3.84920
H          0.70987        2.68356        5.74850
H         -0.71576       -1.35987        5.15208
H          0.84719       -1.62324        3.28485
H         -1.34833        3.39991        7.15806
H         -2.86750        2.72556        7.74629
H         -3.47667        2.10250        5.32543
H         -2.01228        2.91067        4.78121
H         -3.25320       -0.39133        6.16745
H         -3.33594       -0.24006        7.93908
H         -2.22560       -1.40617        7.19163
H          0.42016        1.62374        8.75078
H          0.07766       -0.11001        8.88463
H         -1.06379        1.07312        9.56872
H          1.75765       -1.52028        0.27713
H          2.64714       -0.37311       -0.70579
H         -0.07027        0.06824        0.67790
H          0.16502       -0.07797       -1.06502
H          1.17360        2.20179        0.72322
H         -0.22759        2.25789       -0.37099
H          1.32290        1.84314       -2.32377
H          2.70598        1.91899       -1.20198
H          0.88819        4.19545       -1.01773
H          3.06774        2.94257       -3.38293
H          2.18392        6.19350       -1.43147
H          2.70478        6.29836       -3.02302
