78

C          1.03312        0.61175        0.31077
C          2.55880        0.48399        0.32538
C          3.11577       -0.01794        1.66218
C          4.63989       -0.17133        1.67657
C          5.19977       -0.67546        3.01058
C          6.71839       -0.87727        3.00248
C          7.27916       -1.38070        4.33793
C          8.79529       -1.62838        4.32607
Si         9.51525       -2.11471        6.01916
C          9.11098       -0.75776        7.24619
C          9.79433        0.47423        7.20159
C          9.44331        1.52959        8.04123
C          8.38795        1.41600        8.96554
C          7.71354        0.18126        9.02922
C          8.06816       -0.87239        8.18684
C          8.04843        2.59348        9.83910
C          6.83432        3.37012        9.42760
C          6.87444        4.77854        9.46657
C          5.75838        5.54594        9.14568
C          4.53855        4.94814        8.76291
C          4.50203        3.53960        8.73171
C          5.61633        2.76855        9.05565
Si         3.05489        6.01630        8.38506
C          2.65710        7.08623        9.91380
C          2.49478        6.26651       11.19891
C          2.10191        7.08954       12.40571
F          3.02119        8.04790       12.71508
F          0.91011        7.74331       12.22658
F          1.94988        6.31770       13.52041
C          3.39592        7.20707        6.95429
C          1.53380        4.97053        7.96835
C          7.86660        2.17807       11.42935
O          6.97596        1.33059       11.65310
O          8.64768        2.79644       12.17792
C          8.77295       -3.76923        6.56237
C         11.38762       -2.32674        5.82950
H          0.66510        0.97537       -0.65948
H          0.68405        1.31374        1.08286
H          0.55013       -0.35759        0.50695
H          3.01295        1.46112        0.08786
H          2.87881       -0.19960       -0.47990
H          2.64976       -0.98907        1.90782
H          2.80940        0.67314        2.46711
H          5.10666        0.79862        1.42937
H          4.94191       -0.86400        0.87027
H          4.70848       -1.62934        3.27388
H          4.92975        0.03252        3.81320
H          7.21388        0.07438        2.74045
H          6.98805       -1.58868        2.20080
H          6.75275       -2.31092        4.61571
H          7.03412       -0.65261        5.12950
H          9.31888       -0.71020        4.00515
H          9.05358       -2.40307        3.58180
H         10.61896        0.61871        6.49671
H          9.99278        2.47309        7.98469
H          6.94446        0.06029        9.79382
H          7.51720       -1.81270        8.27640
H          8.90481        3.28055        9.82832
H          7.80357        5.26649        9.76916
H          5.84293        6.63662        9.19431
H          3.57920        3.02420        8.45182
H          5.54228        1.68200        9.03146
H          1.74314        7.66697        9.70825
H          3.47120        7.81753       10.04055
H          3.42854        5.74298       11.45286
H          1.71781        5.49399       11.09246
H          4.28469        7.81947        7.16268
H          2.54695        7.88538        6.78237
H          3.58594        6.65027        6.02613
H          1.27022        4.28419        8.78519
H          1.70720        4.36448        7.06806
H          0.66605        5.61855        7.77706
H          7.67709       -3.72456        6.62944
H          9.15573       -4.06527        7.54906
H          9.03311       -4.55998        5.84354
H         11.86663       -1.38965        5.51228
H         11.62241       -3.09599        5.07892
H         11.84205       -2.62726        6.78400
