59

F          2.23809        0.85274        2.10397
S          2.37022       -0.62760        1.34621
O          1.02519       -1.13847        1.40183
O          2.97309       -0.26760        0.08033
C          3.49791       -1.49230        2.30232
S          2.98271       -2.51365        3.57292
O          1.63365       -3.02068        3.41777
O          4.06736       -3.41430        3.94772
C          2.85003       -1.37431        5.10998
C          2.52779       -2.07358        6.46618
F          1.35157       -2.72628        6.41887
F          3.49224       -2.94405        6.82078
F          2.43895       -1.13857        7.45587
F          4.03599       -0.71439        5.27180
F          1.87531       -0.45019        4.89094
C          4.93596       -1.17127        2.13846
C          5.38838        0.16214        2.05300
C          6.73957        0.45750        1.87931
C          7.71463       -0.55539        1.79529
C          7.25574       -1.88697        1.88012
C          5.90579       -2.19201        2.03571
Si         9.54488       -0.18851        1.63068
C         10.45105       -0.88669        3.16016
C          9.84322       -0.42963        4.49281
C         10.53761       -1.04520        5.69446
C         10.06197       -0.56751        7.11446
C          8.54648       -0.68525        7.53106
C          7.80790       -2.08559        7.58352
C          8.38975       -3.19406        8.53758
C          7.40340       -4.38971        8.82329
F          6.93254       -4.91482        7.68276
F          8.08956       -5.34788        9.48841
F          6.37446       -4.00294        9.59428
F          9.50856       -3.72254        7.98379
F          8.71089       -2.64885        9.74207
F          6.54466       -1.80556        8.00479
F          7.74496       -2.58503        6.32662
F          8.44698       -0.12288        8.76776
F          7.81871        0.07538        6.66791
F         10.79989       -1.21044        8.06412
F         10.34556        0.76930        7.20245
F         10.45138       -2.41595        5.67107
F         11.88761       -0.74501        5.67651
C         10.29039       -1.04360        0.11646
C          9.85656        1.67483        1.51983
H          4.66741        0.97579        2.12967
H          7.03584        1.50835        1.82084
H          7.96600       -2.71721        1.80927
H          5.58477       -3.23058        2.08793
H         11.51578       -0.60977        3.10636
H         10.40957       -1.98580        3.09638
H          8.77887       -0.70055        4.53561
H          9.90000        0.66323        4.60758
H         10.10216       -2.12634        0.14471
H         11.37843       -0.89014        0.06212
H          9.84290       -0.65423       -0.80883
H          9.47694        2.21145        2.40094
H          9.36546        2.10417        0.63499
H         10.93380        1.88168        1.43894
