19

C          1.05567        0.07222        0.05331
S          2.84670       -0.11474        0.28230
C          3.39119        1.60057       -0.05387
C          4.91372        1.65908       -0.22161
N          5.34936        3.00163       -0.15024
C          6.69552        3.08326       -0.47882
C          7.23350        4.50048       -0.68478
O          6.67610        5.44144       -1.19965
O          8.54798        4.65148       -0.25865
H          0.59619       -0.90915        0.23323
H          0.81191        0.39456       -0.96995
H          0.63166        0.79417        0.76640
H          3.10296        2.24915        0.78683
H          2.89184        1.96337       -0.96505
H          5.17687        1.14435       -1.19500
H          5.37136        0.97286        0.56455
H          6.98996        2.54095       -1.44222
H          7.42614        2.58529        0.28041
H          8.75667        3.79983        0.18521
