35

C          1.66948        0.74497        1.39208
C          1.65372        0.23563       -0.01448
C          2.19728        0.86608       -1.12343
C          2.83618        2.16933       -0.99682
C          3.33735        2.85799       -2.07783
C          3.27351        2.33694       -3.39734
C          2.68373        1.05335       -3.54938
C          2.18047        0.35190       -2.47802
C          3.81862        3.08737       -4.53261
C          5.38342        3.12355       -4.73830
C          6.16822        1.78165       -4.99287
C          5.95540        0.93380       -6.31573
C          6.17294        1.63466       -7.70936
C          6.37096        0.63029       -8.90973
F          5.40617       -0.30803       -8.93534
F          6.31337        1.32811      -10.06672
F          7.56923        0.01970       -8.85708
F          5.09711        2.39678       -8.01136
F          7.28373        2.41896       -7.68148
F          6.87290       -0.08411       -6.24063
F          4.72352        0.37687       -6.30877
F          7.50196        2.10209       -4.96574
F          5.93278        0.91901       -3.97473
F          5.72999        3.96317       -5.77886
F          5.94371        3.65001       -3.60741
F          3.31152        2.65386       -5.75316
F          3.52024        4.46490       -4.44640
I          0.90273       -1.76012       -0.17241
H          1.60132        1.84645        1.40000
H          2.58377        0.47573        1.96351
H          0.81330        0.36894        1.97153
H          2.92621        2.62505       -0.01032
H          3.79127        3.83753       -1.91278
H          2.61544        0.61128       -4.54486
H          1.73178       -0.62723       -2.65155
