48

C          0.17811       -0.43745       -0.43809
O          1.56476       -0.18395       -0.34780
C          2.31465       -0.93327       -1.30205
C          3.78329       -0.55264       -1.17486
O          4.49454       -1.30290       -2.13757
C          5.90211       -0.95116       -2.19435
C          6.61808       -1.84273       -3.17670
In         8.77266       -1.24774       -3.56215
C         10.25222       -1.37178       -1.81358
C         11.44901       -0.76174       -2.25011
C         12.57173       -0.61460       -1.43264
C         12.53255       -1.05903       -0.10719
C         11.37149       -1.65806        0.36649
C         10.25246       -1.83087       -0.47313
C          9.10669       -2.55997        0.17405
O          9.04002       -2.79613        1.36933
O          8.12059       -3.00171       -0.64277
C          9.66962       -2.84116       -4.92758
C         10.59902       -3.68391       -4.28361
C         11.37270       -4.62355       -4.97142
C         11.26291       -4.73937       -6.36062
C         10.36109       -3.92333       -7.03619
C          9.56006       -3.00555       -6.33080
C          8.57744       -2.24898       -7.17789
O          8.71757       -2.03343       -8.36867
O          7.44100       -1.83478       -6.55318
H         -0.31611        0.17472        0.32791
H         -0.05926       -1.50355       -0.25300
H         -0.22494       -0.16256       -1.43272
H          1.96203       -0.71536       -2.32904
H          2.18965       -2.01986       -1.12764
H          4.14304       -0.76694       -0.14782
H          3.89816        0.53783       -1.34464
H          6.32529       -1.05123       -1.17702
H          5.97667        0.11546       -2.48604
H          6.10838       -1.76956       -4.15152
H          6.54530       -2.89413       -2.86102
H          8.93829        0.38378       -4.19289
H         11.51427       -0.38592       -3.27550
H         13.47647       -0.14857       -1.83075
H         13.39851       -0.94168        0.54717
H         11.29771       -2.01902        1.39332
H          8.30536       -2.68072       -1.55408
H         10.74038       -3.59684       -3.20308
H         12.07108       -5.25915       -4.42128
H         11.87152       -5.46029       -6.91009
H         10.24740       -3.98123       -8.12001
H          7.48732       -2.11890       -5.61549
