24

F          1.27679        0.46242        0.23656
In         3.06244       -0.39476       -0.31625
C          4.02161       -0.80261        1.64490
C          3.04035       -1.18267        2.75703
C          3.72649       -1.58552        4.07333
C          2.75331       -2.02632        5.16805
N          3.47596       -2.57240        6.31170
C          2.84590       -3.13437        7.40167
N          1.58249       -3.33083        7.58669
N          3.75232       -3.52449        8.40821
Cl         4.41575        1.43774       -1.31725
H          2.71872       -1.57447       -1.57284
H          4.57535        0.11275        1.90711
H          4.77175       -1.59888        1.50262
H          2.40287       -2.02625        2.43598
H          2.34401       -0.34710        2.93833
H          4.33775       -0.74128        4.44134
H          4.42740       -2.41414        3.87259
H          2.08749       -2.81231        4.77451
H          2.10785       -1.17720        5.46649
H          4.38243       -2.15298        6.49693
H          1.03168       -2.88438        6.84907
H          4.56054       -4.03043        8.05097
H          3.26145       -4.06612        9.11546
