38

C          0.98133        1.95574       -1.51107
C          2.47657        1.87708       -1.18084
C          2.76121        1.39639        0.24950
B          4.30179        1.38690        0.77403
S          5.22612       -0.30243        0.40093
O          6.60165       -0.29127        0.92747
O          4.38109       -1.46101        0.73739
C          5.55701       -0.73565       -1.49990
C          6.39922        0.22791       -2.37356
F          7.60488        0.47808       -1.83147
F          6.61706       -0.30585       -3.61562
F          5.75868        1.40359       -2.55896
F          6.21058       -1.93596       -1.49608
F          4.36237       -0.91484       -2.14957
C          5.25188        2.66460        0.44980
C          4.84131        3.90432        1.26054
C          5.72055        5.13536        1.01157
C          5.32631        6.36524        1.83467
C          6.21809        7.58292        1.57805
H          0.79810        2.30206       -2.54115
H          0.46309        2.64746       -0.82712
H          0.50340        0.96971       -1.39901
H          2.92923        2.87163       -1.33634
H          2.96755        1.21009       -1.90629
H          2.31093        0.39818        0.39338
H          2.20518        2.05760        0.94408
H          4.33473        1.12202        1.97885
H          5.23745        2.93478       -0.62098
H          6.30237        2.42597        0.68984
H          4.86504        3.65619        2.33700
H          3.79066        4.16879        1.03960
H          5.69034        5.39225       -0.06308
H          6.77273        4.87551        1.22778
H          5.35671        6.10656        2.90716
H          4.27573        6.62559        1.61767
H          7.26982        7.35877        1.81431
H          5.91694        8.44967        2.18587
H          6.17895        7.88691        0.52049
