18

C          1.04380        0.46489        0.06513
C          2.52010        0.06262        0.13309
C          3.38822        0.74778       -0.92492
C          4.86854        0.32876       -0.85667
N          5.67978        0.87766       -1.93446
S          6.45592        2.18184       -1.64021
O          6.92201        2.40436       -0.26667
O          7.36220        2.53206       -2.72383
F          5.29164        3.44548       -1.76043
H          0.44027       -0.04386        0.83323
H          0.61206        0.21835       -0.91733
H          0.92495        1.54946        0.20970
H          2.60602       -1.03350        0.02243
H          2.91706        0.29545        1.13643
H          3.32705        1.84278       -0.81568
H          3.00572        0.51570       -1.93397
H          4.91502       -0.77484       -0.94399
H          5.26817        0.58306        0.14552
