28

C          1.15115       -0.35464       -0.23190
C          2.62729       -0.45591        0.15495
Ta         3.37885       -1.84304        1.62050
C          2.19821       -3.38642        2.80872
C          2.03170       -4.91622        2.53334
C          3.16534       -5.84700        3.10123
F          4.40372       -5.39658        2.82808
F          3.06309       -6.00237        4.43922
F          3.04757       -7.08493        2.54733
F          0.87095       -5.39328        3.11951
F          1.92222       -5.17935        1.20325
F          2.43605       -3.36566        4.20080
F          0.89169       -2.86879        2.65229
C          5.51086       -1.27645        1.68618
C          6.44052       -1.59518        0.56111
O          7.14657       -0.78825       -0.02500
O          6.44417       -2.90661        0.18274
H          0.93671        0.51228       -0.88208
H          0.50647       -0.26055        0.65504
H          0.83295       -1.26140       -0.76414
H          2.97263        0.49604        0.62905
H          3.26816       -0.58752       -0.73923
H          2.51399       -2.89784        0.51165
H          2.82975       -1.15009        3.18902
H          4.25647       -3.37791        1.27494
H          5.78482       -1.87446        2.57744
H          5.58741       -0.20532        1.93683
H          5.64285       -3.30833        0.63070
