54

C          7.24139        2.32909        4.00632
C          7.06807        1.82644        2.56544
C          5.69360        1.27466        2.23987
As         5.56208        0.65732        0.25124
C          5.67971        0.10226       -1.78382
C          5.46211       -1.20318       -2.23823
C          5.76103       -1.58105       -3.55051
C          6.29373       -0.63419       -4.44190
C          6.49962        0.68764       -4.00865
C          6.19107        1.03527       -2.69228
C          6.68277       -1.05738       -5.82543
C          5.54379       -1.17249       -6.91096
C          4.75094        0.11155       -7.36554
C          5.45665        1.28828       -8.16364
C          6.22269        0.94355       -9.49601
C          6.48651        2.18810      -10.42831
F          7.04043        3.20594       -9.74418
F          7.34153        1.81607      -11.40550
F          5.35290        2.61895      -11.01002
F          7.43073        0.41112       -9.19698
F          5.51094        0.05169      -10.23461
F          4.44395        2.14804       -8.49383
F          6.30659        1.94570       -7.34150
F          3.73537       -0.33274       -8.16571
F          4.19823        0.69616       -6.27410
F          6.06089       -1.73412       -8.04866
F          4.59653       -2.02721       -6.42942
F          7.64215       -0.22878       -6.37170
F          7.22949       -2.33050       -5.81323
C          3.51052        0.19686        0.44333
C          2.59873        1.37448        0.13643
C          1.64713        1.80386        1.25285
S          0.36733        0.57243        1.73816
H          8.25911        2.71453        4.18751
H          7.05556        1.52098        4.73109
H          6.53068        3.13948        4.23196
H          7.82579        1.04926        2.36023
H          7.30097        2.64783        1.86342
H          4.91015        2.03905        2.37968
H          5.44818        0.39430        2.85670
H          7.12471        1.01044        0.05085
H          5.17810        2.18149       -0.23670
H          5.89438       -0.88285        0.62867
H          5.08530       -1.95826       -1.53922
H          5.61122       -2.61115       -3.87955
H          6.92571        1.42417       -4.69237
H          6.38103        2.05798       -2.34273
H          3.41314       -0.14544        1.48378
H          3.33473       -0.66307       -0.21508
H          2.01500        1.20535       -0.78448
H          3.23415        2.26629       -0.08233
H          1.13489        2.74440        1.00243
H          2.20458        1.96864        2.18821
H         -0.11505        0.35652        0.49119
