29

C          2.91315        0.41727       -1.54733
C          2.68494        0.07301       -0.07426
C          3.12674       -1.35958        0.30094
C          4.60893       -1.64606        0.09329
S          5.61524       -0.97735        1.21724
O          5.01060       -0.78143        2.52765
O          6.99065       -1.50827        1.14573
F          5.89900        0.64976        0.80584
C          5.06684       -2.66864       -0.85929
C          4.32903       -3.88776       -0.84872
C          4.60622       -4.96157       -1.68288
C          5.65688       -4.87608       -2.60546
C          6.37437       -3.68799       -2.67678
C          6.11015       -2.58809       -1.83625
C          6.92549       -1.37058       -2.21573
O          7.00194       -1.02503       -3.38828
O          7.62591       -0.72170       -1.28118
H          2.59572        1.44600       -1.77392
H          2.35149       -0.26229       -2.20804
H          3.97656        0.32856       -1.80807
H          1.61394        0.18146        0.17538
H          3.22688        0.79113        0.56008
H          2.56391       -2.06449       -0.33123
H          2.82448       -1.55281        1.34443
H          3.52927       -3.98696       -0.11333
H          4.01460       -5.87654       -1.59838
H          5.89978       -5.71068       -3.26534
H          7.15569       -3.56534       -3.42866
H          7.45967       -1.09352       -0.36150
