14

Br         1.35129        0.80072        0.10558
B          3.10235        0.08633       -0.53786
S          3.70556       -1.47175        0.45447
O          2.57019       -2.37649        0.63936
O          4.95193       -1.99944       -0.09644
C          4.18213       -0.99575        2.25210
F          3.19179       -0.33034        2.88346
F          4.42255       -2.14109        2.93625
F          5.29741       -0.24198        2.29501
S          4.40265        1.49569       -0.73167
O          5.76012        1.02355       -0.91281
O          3.89439        2.53364       -1.60853
F          4.40693        2.19601        0.76466
H          3.04197       -0.39028       -1.64448
