34

C          0.85619       -0.07766       -0.17235
C          2.38141        0.05640       -0.16833
C          2.87505        1.33532        0.51565
C          4.40360        1.44346        0.52627
C          4.97861        2.78607        1.01601
C          4.61929        3.99929        0.01053
O          4.25080        3.67042       -1.14345
O          4.79052        5.14641        0.50245
C          4.41467        3.20949        2.36125
O          4.68912        2.13862        3.37966
C          4.43393        2.44173        4.63762
F          3.12952        2.81772        4.87827
F          4.67681        1.35327        5.41913
F          5.20019        3.46728        5.14359
C          6.52244        2.71915        1.11624
C          7.24302        2.46315       -0.20759
N          8.70715        2.59623       -0.01617
H          0.52502       -0.99673       -0.67932
H          0.38963        0.77598       -0.68668
H          0.45753       -0.09947        0.85386
H          2.75484        0.04364       -1.20620
H          2.82730       -0.82358        0.32826
H          2.47812        1.36003        1.54590
H          2.46944        2.21021       -0.01701
H          4.75294        1.30683       -0.50774
H          4.82297        0.61948        1.13381
H          3.32534        3.33793        2.33234
H          4.88784        4.13890        2.69511
H          6.82805        1.95050        1.84655
H          6.86214        3.69502        1.50557
H          6.83765        3.14421       -0.97545
H          7.05141        1.43536       -0.55450
H          8.90163        3.54849        0.30440
H          9.17231        2.51533       -0.92278
