43

C          0.41867       -4.02789       -4.16621
C          1.91724       -4.26300       -3.95720
C          2.67125       -3.02263       -3.46634
C          4.17176       -3.25601       -3.23287
C          4.94700       -2.02538       -2.73141
Al         6.86163       -2.45926       -2.31210
S          7.66011       -0.76409       -0.66292
O          6.71668       -0.56497        0.45855
O          9.07503       -1.02155       -0.32007
C          7.84136        1.05989       -1.42334
C          6.55389        1.90682       -1.53559
F          6.07225        2.24572       -0.32628
F          6.78350        3.07139       -2.21942
F          5.59812        1.23164       -2.21105
F          8.73186        1.75636       -0.66359
F          8.36399        0.93981       -2.68714
C          8.20270       -2.49747       -3.80529
C          7.92564       -1.63606       -5.04575
C          9.03715       -1.70126       -6.10453
C          8.80340       -0.84521       -7.35165
N          7.66123       -1.34362       -8.13991
H         -0.09498       -4.93575       -4.51674
H          0.24212       -3.23624       -4.91048
H         -0.06595       -3.71005       -3.23036
H          2.37030       -4.61157       -4.90140
H          2.06293       -5.08293       -3.23298
H          2.21569       -2.66554       -2.52530
H          2.54197       -2.20180       -4.19455
H          4.61479       -3.62336       -4.17775
H          4.28527       -4.08721       -2.51268
H          4.47034       -1.64425       -1.81101
H          4.86714       -1.21195       -3.47349
H          7.02844       -3.66721       -1.24087
H          8.29885       -3.55812       -4.11033
H          9.18704       -2.23514       -3.37651
H          7.79912       -0.58003       -4.75128
H          6.97196       -1.92925       -5.51277
H          9.18839       -2.75348       -6.41351
H          9.98837       -1.38770       -5.64198
H          9.74531       -0.79389       -7.93688
H          8.56565        0.18641       -7.04256
H          7.85446       -2.29609       -8.45657
H          7.53252       -0.77907       -8.98032
