32

C          0.99633        0.05314       -0.26348
C          2.52259        0.05393       -0.13858
C          3.03186       -0.57253        1.16340
C          4.55748       -0.56446        1.30969
C          5.07120       -1.22216        2.60176
C          6.59286       -1.20803        2.79326
Al         7.32425       -2.23256        4.39860
C          6.75381       -1.42525        6.18327
C          5.27904       -1.50965        6.53620
N          4.96680       -0.92974        7.88133
O          6.72210       -3.93258        4.37540
H          0.66019        0.50637       -1.20837
H          0.53219        0.61643        0.56075
H          0.59648       -0.97185       -0.22357
H          2.89706        1.08964       -0.21192
H          2.96251       -0.48608       -0.99476
H          2.66583       -1.61309        1.23232
H          2.58243       -0.04030        2.02158
H          4.92380        0.47784        1.26605
H          5.01175       -1.07906        0.44287
H          4.70570       -2.26546        2.62990
H          4.58380       -0.71963        3.45815
H          6.94962       -0.15920        2.83139
H          7.07168       -1.64399        1.89301
H          8.98204       -2.22748        4.30029
H          7.08792       -0.37209        6.24121
H          7.33549       -1.97290        6.95329
H          4.94949       -2.56416        6.46284
H          4.67705       -0.94145        5.80608
H          5.63237       -1.33245        8.54712
H          4.04085       -1.24565        8.18899
H          7.31128       -4.54327        3.91592
