21

C          0.94499        0.07039        0.52036
Sb         2.96784       -0.29304       -0.38812
C          3.64352       -1.41969        1.51425
C          3.64317       -0.52995        2.74423
C          4.28139       -1.06925        4.02313
O          4.28147       -0.50147        5.09923
O          4.88596       -2.28555        3.89190
N          4.93005       -0.74052       -1.23394
H          0.92942        1.04522        1.02727
H          0.71151       -0.72606        1.24144
H          0.20544        0.06163       -0.29156
H          3.70213        1.18905        0.34913
H          2.46126        0.62088       -1.85287
H          2.41959       -1.86184       -1.08379
H          4.64836       -1.74080        1.19540
H          2.96487       -2.28229        1.59809
H          2.61970       -0.23263        3.02636
H          4.15663        0.42621        2.52739
H          4.74149       -2.53252        2.94574
H          5.35554        0.17189       -1.43708
H          4.74075       -1.14842       -2.15690
