47

C          3.41999        3.14429       -4.76267
C          4.74480        3.23732       -4.00059
C          4.62001        2.88779       -2.51416
C          5.94101        2.98101       -1.74525
C          5.81590        2.62804       -0.25833
C          7.13716        2.76982        0.52172
Al         7.95218        4.60275        0.69204
S          6.22141        5.57410        2.19955
O          4.87562        5.62108        1.58549
O          6.32066        4.97940        3.55200
C          6.58069        7.47146        2.64852
C          6.23983        8.53085        1.57450
F          4.91271        8.61732        1.36457
F          6.66883        9.77497        1.95632
F          6.84714        8.23905        0.40655
F          5.88011        7.77980        3.77567
F          7.91703        7.58833        2.93265
C          9.69725        4.74540        1.66901
C          9.86600        3.98080        2.98998
C         11.24029        4.16493        3.65008
C         11.41066        3.40747        4.97112
C         12.78831        3.60027        5.61141
H          3.53963        3.40034       -5.82599
H          2.67083        3.82917       -4.33692
H          3.00142        2.12721       -4.70880
H          5.15384        4.25717       -4.09617
H          5.48747        2.56886       -4.46969
H          4.20454        1.86770       -2.41536
H          3.88238        3.56179       -2.04412
H          6.34751        4.00221       -1.83873
H          6.68621        2.31304       -2.21717
H          5.42055        1.59548       -0.18012
H          5.05021        3.28000        0.19425
H          7.90773        2.12166        0.05760
H          7.00640        2.37067        1.54267
H          7.86691        5.58209       -0.59790
H          9.89982        5.81896        1.83721
H         10.47904        4.41948        0.95312
H          9.69797        2.90105        2.82312
H          9.08238        4.29285        3.70106
H         11.41047        5.24303        3.82424
H         12.02868        3.84697        2.94248
H         11.23246        2.33210        4.79719
H         10.62684        3.73223        5.67612
H         13.58999        3.25711        4.93886
H         12.88448        3.04491        6.55654
H         12.97736        4.66305        5.82861
