21

O          1.43297        0.25535        0.03578
C          2.67413        0.10553       -0.12553
O          3.51374        0.92355       -0.60231
C          3.25901       -1.30063        0.30516
C          2.83609       -2.39031       -0.70152
C          1.35282       -2.76803       -0.66291
C          0.94704       -3.76173       -1.75502
C         -0.53718       -4.14067       -1.70962
N          4.72701       -1.21839        0.43951
H          2.80607       -1.54623        1.28419
H          3.44528       -3.29741       -0.50974
H          3.10537       -2.04502       -1.71720
H          0.76317       -1.83989       -0.73603
H          1.11542       -3.19659        0.32822
H          1.56195       -4.67755       -1.67685
H          1.18229       -3.32712       -2.74245
H         -0.79893       -4.60443       -0.74543
H         -0.80778       -4.85147       -2.50599
H         -1.17282       -3.24961       -1.82378
H          4.94066       -0.30295        0.00599
H          5.16727       -1.92470       -0.15617
