36

C          8.05637       -0.29329        0.90010
S          6.86086        0.59966        1.93548
C          5.78376        1.32874        0.65891
C          4.94447        2.47711        1.17306
Nb         5.78294        3.70016       -0.44674
S          4.02039        5.17436        0.52768
O          2.66315        4.64471        0.34367
O          4.39879        5.59416        1.88329
F          3.92638        6.63923       -0.27891
C          7.94557        3.95354       -0.19628
C          8.74822        3.92039       -1.35663
C         10.14540        3.97745       -1.28219
C         10.79154        4.08005       -0.04556
C         10.01151        4.12074        1.11279
C          8.61307        4.05409        1.04027
C         10.69008        4.29139        2.44564
F         11.94037        3.73559        2.47049
F         10.85957        5.61141        2.77172
F          9.99281        3.73149        3.46877
C         10.98773        3.87898       -2.52435
F         10.29684        4.14750       -3.66263
F         12.05568        4.73315       -2.49999
F         11.52080        2.62263       -2.68486
H          8.78057       -0.76029        1.57953
H          8.59004        0.40137        0.23679
H          7.56977       -1.07807        0.30555
H          5.18028        0.55065        0.17089
H          6.50324        1.65480       -0.16812
H          5.27917        2.88430        2.13767
H          3.86767        2.28772        1.19790
H          5.65300        2.80607       -1.99669
H          4.98424        4.57722       -1.72618
H          6.22071        5.39493       -0.48489
H          8.28084        3.85700       -2.34274
H         11.87811        4.12820        0.01281
H          8.04355        4.08774        1.97170
