25

S          1.71019        1.71932        0.18862
C          3.04935        0.45965        0.04611
C          3.55121        0.09210        1.44648
C          4.72675       -0.88574        1.39995
In         5.51325       -1.46566        3.38759
S          3.63158       -3.28323        4.06834
O          3.88733       -4.12129        5.24272
O          2.24828       -2.84804        3.85041
F          3.89087       -4.38150        2.76109
C          7.28257       -2.82826        3.26933
O          8.47510       -2.06038        3.70406
C          9.64617       -2.68033        3.62699
F         10.00119       -3.05454        2.35051
F         10.61684       -1.84100        4.07362
F          9.72937       -3.82609        4.37705
H          1.42928        1.82178       -1.13206
H          3.86600        0.87918       -0.55844
H          2.65042       -0.42848       -0.46293
H          2.71676       -0.34257        2.01987
H          3.84115        1.01775        1.97214
H          5.56580       -0.45682        0.82591
H          4.43575       -1.82039        0.89639
H          5.46559       -0.34699        4.73443
H          7.45650       -3.17009        2.23942
H          7.17381       -3.70225        3.92515
