103

C          1.29803       -0.37891       -0.90655
C          2.70842       -0.13311       -0.36088
C          3.16613        1.32761       -0.46715
C          4.57318        1.60158        0.07746
B          5.09391        3.15972       -0.10237
C          4.21847        4.25473        0.73027
C          3.50809        3.97053        1.91746
C          2.78844        4.94417        2.61773
C          2.73407        6.28153        2.17394
C          3.44040        6.58139        0.98974
C          4.15040        5.59763        0.29867
Si         1.76115        7.57313        3.11807
C          2.40408        7.67503        4.91105
C          1.69093        8.66616        5.84251
C          2.26676        8.70192        7.26431
C          1.56145        9.69384        8.19421
C          2.13101        9.71660        9.61623
C          1.43661       10.71692       10.54495
C          1.98940       10.71837       11.97377
C          1.30626       11.73816       12.88809
C          1.93543        9.27555        2.30219
C         -0.08431        7.12657        3.15840
C          6.66872        3.23365        0.31555
C          7.68441        2.97300       -0.63259
C          9.04022        2.96692       -0.30275
C          9.47633        3.22412        1.01616
C          8.47412        3.48905        1.97322
C          7.12003        3.49483        1.62762
Si        11.29419        3.29130        1.42997
C         12.05534        4.91808        0.76363
C         11.30157        6.16739        1.23592
C         11.95280        7.50624        0.93456
C         12.16011        7.95557       -0.55761
C         10.93059        7.98711       -1.54242
C          9.69954        8.95266       -1.29259
C          9.97208       10.50169       -1.20733
C          8.68685       11.39514       -1.39383
F          7.69746       11.00086       -0.57525
F          9.01201       12.67142       -1.09214
F          8.24737       11.36647       -2.66376
F         10.49199       10.80254        0.00622
F         10.85440       10.87542       -2.17271
F          8.86561        8.74461       -2.35187
F          9.06124        8.56350       -0.16428
F         11.43117        8.28622       -2.77445
F         10.40388        6.73450       -1.59842
F         12.71764        9.20272       -0.56246
F         13.05798        7.10559       -1.13643
F         11.23934        8.51584        1.54691
F         13.22139        7.55125        1.48100
C         11.58254        3.22950        3.30189
C         12.26288        1.88360        0.61416
H          0.99468       -1.43358       -0.81478
H          1.23309       -0.10409       -1.97107
H          0.55544        0.23071       -0.36833
H          3.42887       -0.77586       -0.89700
H          2.75420       -0.44955        0.69619
H          2.43266        1.96858        0.05491
H          3.12670        1.64019       -1.52678
H          5.28546        0.93155       -0.44076
H          4.61308        1.28789        1.14129
H          5.02248        3.45622       -1.30689
H          3.51237        2.94672        2.30520
H          2.25489        4.65045        3.52983
H          3.43203        7.60311        0.59656
H          4.67627        5.86966       -0.62218
H          3.47985        7.91787        4.85710
H          2.35698        6.65880        5.34068
H          0.61638        8.41855        5.90191
H          1.74017        9.68371        5.41593
H          3.34159        8.95008        7.21157
H          2.21284        7.68857        7.70030
H          0.48462        9.45060        8.23815
H          1.62412       10.70806        7.76057
H          3.20978        9.94951        9.57248
H          2.05896        8.70417       10.05204
H          0.35414       10.49776       10.57530
H          1.52649       11.73257       10.11945
H          3.07396       10.91859       11.94266
H          1.88147        9.70754       12.40294
H          1.43776       12.76260       12.50773
H          1.71419       11.70645       13.90846
H          0.22398       11.54914       12.95543
H          2.98484        9.60215        2.27256
H          1.35958       10.03674        2.84890
H          1.56298        9.25640        1.26794
H         -0.24040        6.14155        3.62219
H         -0.48286        7.07331        2.13503
H         -0.67901        7.86447        3.71745
H          7.38653        2.77618       -1.66734
H          9.77475        2.76016       -1.08997
H          8.75499        3.69555        3.01143
H          6.38148        3.71856        2.40365
H         12.05142        4.85894       -0.33498
H         13.11100        4.97002        1.07484
H         11.20907        6.17462        2.33449
H         10.27470        6.17794        0.84449
H         11.09156        4.06059        3.82798
H         12.65700        3.27443        3.53306
H         11.18316        2.29596        3.72331
H         12.12016        1.88361       -0.47575
H         11.92196        0.90925        0.99161
H         13.34141        1.97028        0.81349
