18

C          1.08703        0.49874       -0.00877
N          2.32567       -0.12494       -0.31445
C          2.79735       -1.02954        0.66856
C          2.43924       -2.54315        0.44939
C          0.94118       -2.78599        0.26411
C          4.34058       -0.93022        0.77526
H          0.96713        1.43815       -0.59030
H          0.98656        0.79208        1.08362
H          0.12074       -0.07145       -0.20769
H          2.38377       -0.78155        1.69776
H          2.82119       -3.15562        1.29529
H          2.97214       -2.87918       -0.46019
H          0.37450       -2.45959        1.15241
H          0.70792       -3.84944        0.08691
H          0.58238       -2.19920       -0.59288
H          4.77080       -1.08663       -0.22802
H          4.78334       -1.66968        1.46847
H          4.62308        0.08133        1.10012
