24

C          5.14227       -0.61136       -3.52302
O          4.67095       -1.40268       -2.45528
C          4.83789       -0.76086       -1.19064
C          4.40090       -1.68423       -0.06140
O          5.20027       -2.84109        0.12937
C          6.55630       -2.59622        0.54963
C          6.71497       -1.79393        1.83259
Nb         5.84469       -2.34753        3.77964
I          7.68104       -4.57998        3.72081
Cl         3.98820       -3.52298        4.58287
H          4.99108       -1.18400       -4.44849
H          6.22104       -0.37970       -3.41823
H          4.59203        0.34877       -3.60234
H          4.21736        0.15954       -1.15013
H          5.89349       -0.44986       -1.06389
H          3.39221       -2.06371       -0.28680
H          4.33680       -1.09558        0.87393
H          7.10978       -2.12459       -0.29110
H          6.97777       -3.60176        0.69406
H          6.44811       -0.73225        1.69080
H          7.78758       -1.83054        2.11428
H          5.65698       -0.65949        4.26484
H          4.60820       -1.36100        3.00155
H          6.84735       -1.79817        5.11467
