70

C          5.59951        8.35640        2.11709
C          5.21221        7.41868        0.97094
C          6.42073        6.86932        0.20657
C          6.05137        5.92501       -0.94110
C          7.26442        5.38078       -1.70173
C          6.90345        4.42938       -2.84664
C          8.12466        3.89069       -3.60323
C          7.77550        2.91790       -4.73941
Si         9.24601        2.21472       -5.72824
C          8.60044        1.05105       -7.05035
C          7.72304        1.52162       -8.04879
C          7.19961        0.66576       -9.01903
C          7.51074       -0.70916       -9.06312
C          8.39631       -1.16640       -8.06673
C          8.92614       -0.31850       -7.08936
B          6.87945       -1.68125      -10.20886
C          7.91053       -1.85441      -11.45688
C          8.97896       -2.77725      -11.43379
C          9.84690       -2.93559      -12.51811
C          9.68909       -2.17129      -13.68165
C          8.64429       -1.24955      -13.72554
C          7.77565       -1.09829      -12.63344
C          8.42506       -0.40422      -14.94903
F          9.30206       -0.68038      -15.95765
F          7.17144       -0.56533      -15.47373
F          8.54992        0.93311      -14.68639
C         10.95750       -3.94803      -12.48511
F         11.08309       -4.57290      -11.28594
F         10.78424       -4.93745      -13.42133
F         12.17828       -3.38951      -12.76506
C          6.40218       -3.15748       -9.63555
C          5.20522       -3.13625       -8.71317
O          5.01896       -3.86516       -7.75455
O          4.25576       -2.21101       -9.05152
C         10.19228        3.65236       -6.52628
C         10.41869        1.30899       -4.54832
H          4.71552        8.73821        2.64749
H          6.16615        9.22360        1.74523
H          6.23415        7.84079        2.85373
H          4.54920        7.94955        0.26682
H          4.62021        6.57603        1.36657
H          7.08650        6.34152        0.91269
H          7.01218        7.71336       -0.19121
H          5.38492        6.45169       -1.64689
H          5.46217        5.08016       -0.54284
H          7.93236        4.85891       -0.99326
H          7.85155        6.22666       -2.10201
H          6.23559        4.94633       -3.55816
H          6.32095        3.57999       -2.44865
H          8.79506        3.39385       -2.87987
H          8.69735        4.74601       -4.00325
H          7.09506        3.40902       -5.45740
H          7.20669        2.06038       -4.33981
H          7.43198        2.57799       -8.06682
H          6.51071        1.06991       -9.76709
H          8.67148       -2.22505       -8.03742
H          9.59988       -0.73901       -6.33660
H          5.87850       -1.09346      -10.68220
H          9.13200       -3.39612      -10.54838
H         10.36076       -2.29732      -14.52947
H          6.95750       -0.37714      -12.70117
H          7.18989       -3.73171       -9.12409
H          6.09720       -3.76963      -10.50492
H          4.67929       -1.65627       -9.75466
H          9.55632        4.19841       -7.23810
H         11.06012        3.27252       -7.08444
H         10.55828        4.37064       -5.77739
H          9.91201        0.48041       -4.03290
H         10.80978        1.99313       -3.78099
H         11.27853        0.89022       -5.09061
