28

O          1.63026       -0.68496        0.37625
C          1.80512       -0.00426       -0.75212
O          1.00631        0.83048       -1.14787
C          3.02013       -0.39174       -1.61814
C          4.49252       -0.49419       -1.09853
C          5.05063        0.90379       -0.68676
C          4.59672        1.67575        0.62170
C          4.93432        1.08394        2.03781
F          6.24216        0.80369        2.16581
F          4.61645        2.02108        2.96972
F          4.21671       -0.01467        2.30394
F          5.22856        2.89102        0.57962
F          3.26060        1.90553        0.59255
F          6.41718        0.88044       -0.60480
F          4.74462        1.79942       -1.69745
C          4.68262       -1.60955        0.00914
O          5.86504       -1.88775        0.34750
O          3.65182       -2.18773        0.44705
C          5.28030       -0.94865       -2.38669
C          6.81807       -1.04246       -2.51895
O          7.33132       -0.72412       -3.58240
O          7.51845       -1.55664       -1.51915
H          2.42109       -1.35525        0.45718
H          3.00093        0.30111       -2.46609
H          2.78411       -1.39276       -2.01392
H          4.97232       -0.30706       -3.22051
H          4.90507       -1.95987       -2.61601
H          6.89128       -1.68407       -0.69735
