68

C         12.19574        2.43257        1.00147
O         11.99601        1.17180        0.39489
C         12.44439        1.13815       -0.95615
C         11.94288       -0.12767       -1.62397
O         10.58056        0.03857       -1.96000
C          9.95752       -1.16105       -2.46982
C          8.50303       -0.87464       -2.77049
In         8.25840        1.14174       -3.67800
S          5.78076        0.82814       -4.79406
O          4.69521        0.44723       -3.88476
O          5.44611        1.79951       -5.84492
F          6.03564       -0.61966       -5.69440
C          9.44849        1.42931       -5.53412
C         10.79029        1.00769       -5.61836
C         11.54930        1.17398       -6.78173
C         11.00243        1.78339       -7.92970
C          9.65970        2.20573       -7.85031
C          8.90335        2.02899       -6.68604
Si        12.01388        1.97053       -9.49852
C         12.04205        0.32502      -10.47088
C         10.65844       -0.17812      -10.90477
C         10.73118       -1.49723      -11.65454
C          9.37049       -2.14539      -12.09132
C          8.40933       -1.36186      -13.07408
C          8.97441       -0.94821      -14.48673
C          7.85101       -0.60529      -15.54216
C          8.36787        0.18176      -16.80458
F          9.43353       -0.43176      -17.35449
F          7.37849        0.22181      -17.72096
F          8.70368        1.44433      -16.49165
F          7.29743       -1.75998      -15.99095
F          6.88438        0.15454      -14.96630
F          9.76059        0.15315      -14.33323
F          9.72201       -1.95498      -15.00206
F          7.33661       -2.17757      -13.28058
F          7.97527       -0.23625      -12.44824
F          9.62519       -3.35838      -12.65830
F          8.62961       -2.35428      -10.96660
F         11.50144       -1.38251      -12.79582
F         11.33571       -2.45860      -10.87711
C         11.29861        3.32074      -10.61558
C         13.81899        2.38299       -9.10599
H         11.81031        2.36319        2.02716
H         11.65005        3.23245        0.46633
H         13.26904        2.70839        1.04042
H         13.55344        1.16943       -0.99015
H         12.05923        2.01470       -1.51174
H         12.08044       -0.98553       -0.93455
H         12.55369       -0.32754       -2.53051
H         10.09852       -1.96028       -1.71055
H         10.49487       -1.48263       -3.38539
H          7.88786       -0.92703       -1.86239
H          8.10932       -1.60247       -3.49255
H          7.91715        2.55859       -2.70604
H         11.26792        0.53402       -4.75458
H         12.58720        0.82293       -6.78928
H          9.18677        2.68743       -8.71216
H          7.85941        2.35520       -6.68580
H         12.52646       -0.42915       -9.83115
H         12.69013        0.45333      -11.35320
H         10.16305        0.55287      -11.55952
H         10.00219       -0.32585      -10.03370
H         10.25779        3.11653      -10.90394
H         11.88918        3.41543      -11.53900
H         11.31063        4.29368      -10.10432
H         14.27773        1.61423       -8.46815
H         13.89348        3.34279       -8.57589
H         14.41632        2.45424      -10.02700
