33

C         -0.02090       -0.87433       -0.23062
C          1.43623       -0.44778       -0.43590
C          2.40496       -1.61598       -0.65399
C          3.86115       -1.18696       -0.88200
C          4.83347       -2.33297       -1.20891
B          6.32252       -1.88771       -1.74420
C          7.34196       -1.26753       -0.61399
C          7.06997        0.18052       -0.17537
C          8.10515        0.76870        0.79290
C          7.82687        2.22267        1.19200
S          7.18547       -3.42880       -2.65927
H         -0.69057       -0.00954       -0.10549
H         -0.12824       -1.51029        0.66178
H         -0.38797       -1.45697       -1.08979
H          1.77123        0.14557        0.43295
H          1.49972        0.23358       -1.30232
H          2.06782       -2.20878       -1.52441
H          2.35313       -2.30291        0.21154
H          4.20335       -0.63423        0.01132
H          3.88810       -0.45305       -1.70910
H          4.36518       -2.96335       -1.98697
H          4.92172       -2.98939       -0.31715
H          6.20809       -1.09737       -2.69380
H          8.37282       -1.31353       -1.01044
H          7.34909       -1.91367        0.29000
H          6.07454        0.26082        0.29582
H          7.01785        0.82097       -1.07543
H          9.10701        0.69701        0.33454
H          8.14787        0.14069        1.70040
H          7.82267        2.88156        0.30891
H          8.57898        2.61434        1.89556
H          6.83997        2.32070        1.67216
H          7.29268       -4.28069       -1.60746
