17

S          0.96720        0.01421       -0.07503
C          2.81456       -0.04453       -0.09217
C          3.38127        1.21927       -0.73465
C          4.91287        1.19334       -0.79116
B          5.59636        2.53358       -1.42134
S          5.00595        2.95500       -3.23330
S          7.52883        2.22015       -1.30817
H          0.75969       -1.18176        0.52585
H          3.12743       -0.93438       -0.65643
H          3.16600       -0.14360        0.94458
H          3.04287        2.10352       -0.16785
H          2.98304        1.33570       -1.75622
H          5.23339        0.30016       -1.36244
H          5.30588        1.05434        0.23507
H          5.28367        3.54352       -0.80035
H          5.49156        1.85861       -3.86763
H          7.93722        3.36324       -1.90345
