24

O          3.88319        1.77866       -0.70675
C          4.89052        1.09936       -1.32629
O          5.26133        1.42952       -2.43522
C          5.47368       -0.06273       -0.52033
C          4.90657       -0.31834        0.87986
Al         5.72998       -1.93260        1.80211
C          4.59560       -2.23248        3.51376
F          3.24048       -2.44918        3.25630
F          4.96260       -3.30410        4.31468
F          4.59641       -1.14104        4.38841
C          7.62191       -1.42678        2.36014
O          8.40677       -2.63411        2.73367
C          9.68460       -2.44961        3.02012
F          9.91619       -1.59708        4.07697
F         10.24354       -3.64369        3.34862
F         10.43059       -1.93663        1.97985
H          3.77114        1.33067        0.16393
H          6.56077        0.11970       -0.49045
H          5.36258       -0.95458       -1.15960
H          3.82294       -0.53475        0.83483
H          5.04641        0.55995        1.53632
H          5.67107       -3.25340        0.86369
H          7.64397       -0.74332        3.22504
H          8.16385       -0.93037        1.53687
