13

C          0.94549        0.11626       -0.04357
C          2.46067        0.13641       -0.08016
C          3.09042        1.53657        0.10596
C          4.62670        1.54358        0.11515
H          0.56859       -0.89629        0.20230
H          0.51583        0.38599       -1.03238
H          2.96655       -0.26926       -1.01617
H          2.85251       -0.50293        0.73851
H          2.68809        1.96389        1.04118
H          2.72113        2.19565       -0.70163
H          5.01788        0.94538        0.95635
H          5.04473        2.56035        0.20746
H          5.02842        1.09640       -0.80989
