24

F          1.48887       -0.66942        0.01947
C          2.73058       -0.15712        0.51571
Nb         3.83234       -1.99747        1.14452
C          4.08349       -3.49893       -0.46171
O          5.14613       -3.29718       -1.46125
C          5.26666       -4.21754       -2.40799
F          4.15259       -4.36269       -3.20589
F          6.29232       -3.87456       -3.22813
F          5.53582       -5.48143       -1.93681
C          2.53642       -2.85045        2.71311
O          3.05958       -3.92238        3.58025
C          2.23429       -4.42035        4.49018
F          1.10392       -5.01313        3.96844
F          2.88547       -5.37917        5.19804
F          1.76865       -3.49907        5.39803
F          3.20676        0.60487       -0.52548
F          2.34552        0.74230        1.48722
H          4.79526       -2.15410        2.58802
H          5.54518       -2.20729        0.96738
H          4.86833       -0.62164        1.45142
H          3.13335       -3.63748       -1.01614
H          4.29471       -4.43698        0.08993
H          1.60857       -3.23553        2.24047
H          2.25961       -1.98799        3.34936
