31

S          1.10040       -0.42069        0.73164
C          2.91187       -0.14069        0.47253
C          3.16474        1.34013        0.19539
C          4.63873        1.64906       -0.03994
P          4.97033        3.54267       -0.43425
C          4.58497        4.01285        1.47044
O          5.40954        5.17963        1.85428
C          5.20373        5.69954        3.04903
F          5.43078        4.83317        4.09940
F          6.04550        6.75385        3.22989
F          3.92671        6.17655        3.25220
C          6.90668        3.37355       -0.06424
O          7.43907        2.10264       -0.61220
C          8.74860        1.98528       -0.70342
F          9.42021        2.09641        0.49700
F          9.05421        0.75588       -1.20539
F          9.35123        2.90640       -1.53286
H          1.16072       -1.75676        0.94474
H          3.24430       -0.75518       -0.37529
H          3.44660       -0.46584        1.37549
H          2.77569        1.93250        1.04155
H          2.57689        1.65174       -0.68440
H          5.01838        1.07604       -0.90058
H          5.23989        1.35625        0.83780
H          5.27632        3.24573       -1.85547
H          5.21697        4.98383       -0.66559
H          3.53033        3.73702       -0.74828
H          4.80805        3.20597        2.18561
H          3.52880        4.31019        1.54870
H          7.17382        3.40697        1.00313
H          7.39295        4.20191       -0.59891
