20

I          1.63905        1.20086        0.57812
In         3.92399       -0.11427       -0.53746
C          4.93704       -1.18431        1.29395
C          6.17425       -0.50553        1.92539
C          6.93137       -1.20554        3.10536
F          6.13414       -1.37981        4.17890
F          7.42485       -2.40917        2.74432
F          7.98771       -0.44058        3.50521
F          7.11686       -0.31866        0.94133
F          5.80756        0.72493        2.40300
F          4.04793       -1.43240        2.33499
F          5.37329       -2.45116        0.86968
C          5.13998        1.52783       -1.40095
C          5.44318        2.70011       -0.46246
H          3.32495       -1.44522       -1.51899
H          4.57169        1.87416       -2.27828
H          6.07145        1.07957       -1.78260
H          4.52286        3.10645       -0.01614
H          5.95224        3.53234       -0.98320
H          6.09469        2.39696        0.36956
