28

S          1.08677       -2.57545        0.45890
C          2.90100       -2.47086        0.04581
C          3.19288       -1.10103       -0.56162
C          4.70390       -0.91404       -0.80708
C          5.36646       -2.01173       -1.59610
C          4.82538       -2.17132       -3.01818
C          4.89590       -0.92923       -3.97110
C          6.28662       -0.52307       -4.47701
C          5.40754       -3.41739       -3.70428
N          6.83054       -1.90391       -1.56856
H          1.07570       -3.89554        0.76933
H          3.17771       -3.26319       -0.65749
H          3.48023       -2.61625        0.96818
H          2.81592       -0.30487        0.10522
H          2.63408       -1.00310       -1.50759
H          5.19978       -0.85144        0.17908
H          4.84310        0.13629       -1.24578
H          3.73651       -2.35419       -2.91545
H          4.45064       -0.06553       -3.44378
H          4.23957       -1.11425       -4.84554
H          6.93335       -0.18408       -3.65637
H          6.21674        0.29920       -5.21034
H          6.80314       -1.36191       -4.96648
H          6.50562       -3.36255       -3.72726
H          5.03491       -3.54156       -4.73773
H          5.14552       -4.31159       -3.11845
H          7.18191       -2.20806       -0.66114
H          7.16637       -0.91379       -1.66023
