22

N          0.92486        0.21660        0.27885
Al         2.51170       -0.35945       -0.43567
C          3.87269        1.15846       -0.98887
C          4.09289        2.47449       -0.19991
C          4.65429        2.32601        1.24713
F          3.84107        1.56820        2.00826
F          5.88698        1.78616        1.25792
F          4.74007        3.55232        1.83437
F          4.95629        3.33106       -0.85295
F          2.89398        3.12954       -0.08326
F          5.15771        0.65845       -1.24163
F          3.41549        1.62454       -2.24196
C          3.42663       -1.53174        1.04804
C          3.34938       -3.06360        0.86625
F          2.06020       -3.47079        0.74100
F          4.01582       -3.45198       -0.25005
F          3.88511       -3.76765        1.90932
F          4.79407       -1.26906        1.21493
F          2.85277       -1.29726        2.31018
H          0.26353        0.72317       -0.30448
H          0.89758        0.62428        1.21035
H          2.35596       -1.18322       -1.81420
