41

N          4.95623        1.45034       -2.81782
C          4.63159        0.78593       -1.53939
C          4.77696       -0.72879       -1.65158
C          4.39536       -1.46266       -0.36510
C          4.61912       -2.98957       -0.40062
C          6.04298       -3.50784       -0.53448
S          7.02715       -3.43043        0.78520
O          6.29659       -3.05376        2.00727
O          8.05334       -4.48409        0.83523
C          8.22900       -1.89403        0.67565
C          9.16917       -1.58936        1.87432
F          8.48072       -1.30442        2.99844
F         10.00607       -2.61381        2.13343
F          9.95915       -0.49305        1.60990
F          9.04500       -2.03705       -0.42365
F          7.49178       -0.74410        0.47688
C          6.40053       -4.43834       -1.67217
C          6.38403       -3.83531       -3.09537
C          7.55456       -2.89835       -3.39801
C          7.39571       -2.14714       -4.71622
N          8.57993       -1.31217       -4.99593
H          4.80804        2.45794       -2.73934
H          4.31332        1.12298       -3.54248
H          3.61240        1.02699       -1.17087
H          5.33875        1.15879       -0.78123
H          5.81637       -0.96935       -1.91886
H          4.14311       -1.09030       -2.48449
H          3.32878       -1.26997       -0.14189
H          4.96831       -1.04993        0.47899
H          4.05070       -3.40120       -1.25543
H          4.14391       -3.40258        0.50710
H          5.68936       -5.29268       -1.67796
H          7.38872       -4.88157       -1.47634
H          5.43300       -3.29464       -3.24806
H          6.38360       -4.66155       -3.83082
H          8.49844       -3.46820       -3.41532
H          7.65308       -2.17142       -2.57522
H          6.45329       -1.56371       -4.67554
H          7.28849       -2.86687       -5.54703
H          8.75026       -0.70817       -4.18831
H          8.38584       -0.68262       -5.77664
