35

O          2.70144        2.22643        2.54009
C          2.77597        2.70677        1.25673
O          2.46754        3.87081        1.03955
C          3.24113        1.73091        0.22639
Nb         5.25580        0.72397        0.61429
C          6.39768       -0.92496       -0.46493
C          6.89549       -0.80712       -1.94563
C          7.67747        0.49392       -2.30518
F          8.80733        0.62308       -1.58231
F          8.02930        0.48076       -3.61720
F          6.91668        1.59476       -2.10307
F          7.74129       -1.84888       -2.27563
F          5.84032       -0.87568       -2.81090
F          7.60040       -1.15761        0.24898
F          5.72350       -2.14980       -0.47715
C          6.65440        2.27429        1.10731
C          7.21651        1.85515        2.32586
C          8.17860        2.62574        2.99142
C          8.59642        3.85041        2.45698
C          8.02691        4.28183        1.24355
C          7.07551        3.50925        0.57983
C          9.63016        4.69632        3.15937
H          3.20465        1.36439        2.50933
H          3.19882        2.21480       -0.75680
H          2.56865        0.85632        0.21411
H          4.63988        0.44282       -1.00136
H          5.50787       -0.72948        1.56968
H          4.23485        0.36517        2.03555
H          6.90604        0.89758        2.77144
H          8.60752        2.27580        3.93480
H          8.33959        5.24045        0.81876
H          6.65306        3.87697       -0.35856
H          9.96334        4.22598        4.09437
H          9.23165        5.69286        3.40485
H         10.51660        4.85205        2.52498
