12

Al         0.78257        0.25375        0.39024
C         -0.04121        1.74803       -0.67602
C          0.92011        2.87272       -1.09291
Cl         2.38425       -0.74174       -0.86475
O          1.63202        0.88001        1.82552
H         -0.32181       -0.89452        0.76102
H         -0.87214        2.16948       -0.07744
H         -0.52221        1.31120       -1.57117
H          1.39850        3.32772       -0.21043
H          0.43683        3.69191       -1.66079
H          1.73527        2.48004       -1.72203
H          2.53814        0.55537        1.89761
