56

F          2.60283       -0.30956        1.36435
Ta         3.66607       -0.19937       -0.24246
S          3.09739        1.03996       -2.36239
O          2.85025        0.74907       -3.78197
O          1.99162        0.53081       -1.36137
C          2.63246        2.90232       -2.26012
F          3.59787        3.63141       -2.87861
F          1.46206        3.14361       -2.89246
F          2.52554        3.34579       -0.99336
C          4.49025       -2.16600        0.40439
C          5.09640       -3.11587       -0.45067
C          5.64126       -4.30713        0.02577
C          5.63427       -4.62993        1.40097
C          5.01011       -3.70898        2.26028
C          4.44578       -2.52262        1.77316
Si         6.54585       -6.15625        1.99682
C          8.35182       -5.94870        1.42856
C          9.32691       -7.12469        1.57388
C         10.71298       -6.80716        0.99776
C         11.71988       -7.95830        1.06708
C         13.07535       -7.60237        0.44813
C         14.10110       -8.73827        0.48370
C         15.44618       -8.36497       -0.14759
C         16.46980       -9.50208       -0.11517
C          6.47336       -6.31877        3.88378
C          5.81637       -7.73138        1.23057
H          3.76981       -1.06290       -1.82532
H          5.42197       -0.16293       -0.53497
H          4.37218        1.38215        0.15314
H          5.15443       -2.89878       -1.51929
H          6.10426       -4.99372       -0.69261
H          4.95947       -3.91304        3.33515
H          3.95644       -1.85446        2.48660
H          8.74997       -5.06364        1.95579
H          8.30396       -5.64605        0.36757
H          8.92270       -8.01543        1.06170
H          9.43105       -7.40831        2.63621
H         11.12626       -5.92762        1.52223
H         10.59281       -6.49633       -0.05513
H         11.30308       -8.84117        0.55038
H         11.86430       -8.26200        2.11920
H         13.49073       -6.72100        0.96806
H         12.92073       -7.28713       -0.59897
H         13.68796       -9.62091       -0.03637
H         14.26464       -9.05301        1.52986
H         15.85697       -7.48308        0.37257
H         15.27912       -8.04851       -1.19112
H         16.68195       -9.81599        0.91810
H         17.42266       -9.20410       -0.57531
H         16.09924      -10.38511       -0.65747
H          6.89267       -5.43118        4.37860
H          7.04490       -7.19542        4.22350
H          5.43835       -6.44061        4.23447
H          5.81144       -7.67084        0.13270
H          4.77539       -7.86776        1.55727
H          6.38276       -8.62977        1.51862
