32

O          1.86237       -0.54823       -0.59795
C          2.66791       -0.03696        0.20989
O          3.08841       -0.40681        1.31657
C          3.34604        1.40151       -0.35725
C          3.62666        2.30432        0.83994
F          4.02349        3.60073        0.46169
F          2.51171        2.50838        1.59419
F          4.60301        1.88548        1.67591
C          4.59068        1.01929       -1.14444
C          5.86098        1.59729       -0.97708
C          6.93809        1.23237       -1.78952
C          6.80178        0.28186       -2.80709
C          5.53486       -0.29867       -2.97493
C          4.45835        0.05619       -2.16653
C          7.97430       -0.12662       -3.66514
C          2.30443        2.09339       -1.28195
C          2.88131        3.09629       -2.28509
C          1.86326        3.71737       -3.21755
O          0.66109        3.70273       -3.10623
O          2.42344        4.39247       -4.29186
H          6.02429        2.35257       -0.21088
H          7.90927        1.70801       -1.62540
H          5.38755       -1.05216       -3.75396
H          3.48779       -0.42675       -2.29571
H          8.73705        0.66420       -3.70536
H          7.66200       -0.34926       -4.69598
H          8.46445       -1.03330       -3.27329
H          1.53484        2.58012       -0.66777
H          1.79320        1.27435       -1.80621
H          3.66295        2.61224       -2.89541
H          3.38429        3.93159       -1.76741
H          3.38894        4.27753       -4.24530
