26

S          1.26862       -0.57000        0.01637
As         3.61508       -0.40969       -0.79894
S          4.43034       -2.86758       -0.16167
O          4.24171       -3.77516       -1.31454
O          5.78786       -2.77299        0.42370
C          3.44039       -3.83863        1.24325
C          3.56140       -3.24836        2.67397
F          3.33474       -1.91601        2.66985
F          2.64857       -3.81267        3.51737
F          4.78193       -3.47018        3.19912
F          2.12460       -3.88324        0.90709
F          3.91273       -5.11935        1.28042
C          3.48958        1.62293       -1.31194
C          3.06560        2.03664       -2.75046
C          1.57142        1.82676       -3.17391
F          0.73024        2.52561       -2.39270
F          1.42070        2.27431       -4.44940
F          1.22338        0.53144       -3.15317
F          3.32108        3.37319       -2.93727
F          3.83613        1.34103       -3.64088
F          2.71423        2.31760       -0.42235
F          4.77459        2.11543       -1.16354
H          1.50173        0.00238        1.21966
H          4.04582       -0.04610        0.64897
H          3.02182       -1.10914       -2.04886
H          5.08129       -0.43491       -1.33633
