32

N          2.01894        1.01814       -3.07269
C          2.25680        1.99058       -1.97845
C          3.09222        1.45105       -0.80659
B          4.65245        1.06979       -1.18030
C          5.32357        0.15051       -0.00993
O          4.60540       -1.17363        0.10626
C          5.03817       -2.01918        1.00611
F          4.97211       -1.56932        2.31482
F          4.28782       -3.16169        0.96208
F          6.35495       -2.42097        0.84815
C          5.56964        2.43186       -1.36035
C          6.98730        2.23132       -1.91156
C          7.77725        3.52336       -2.15926
C          9.20122        3.28833       -2.67420
H          1.49948        0.23213       -2.66863
H          2.93887        0.61207       -3.28128
H          1.26477        2.35247       -1.64814
H          2.76113        2.86344       -2.43004
H          2.55785        0.57034       -0.39675
H          3.07936        2.20703        0.00817
H          4.70745        0.41636       -2.24395
H          5.25448        0.61199        0.99240
H          6.37868       -0.10622       -0.19692
H          5.64263        2.97857       -0.39529
H          5.03814        3.12765       -2.03960
H          6.92721        1.66098       -2.85715
H          7.57413        1.59442       -1.22338
H          7.81639        4.10656       -1.22212
H          7.22174        4.15014       -2.87918
H          9.78802        2.69784       -1.95279
H          9.74189        4.23138       -2.85181
H          9.19068        2.72551       -3.62096
