51

N          3.71016       -0.57332       -4.78612
C          4.02721       -0.23197       -3.36797
C          4.90754        1.00051       -3.24537
Al         5.43273        1.64421       -1.38194
C          6.28146        0.11637       -0.31619
C          7.60527        0.23617        0.16445
C          8.24855       -0.78053        0.87661
C          7.59725       -2.00029        1.15603
C          6.27260       -2.13762        0.69364
C          5.64390       -1.10860       -0.01577
Si         8.45442       -3.35458        2.11628
C          8.39703       -2.94692        3.98464
C          9.11708       -3.95600        4.88507
C          9.07000       -3.62138        6.36059
F          7.79840       -3.56789        6.84793
F          9.73198       -4.56043        7.10935
F          9.65168       -2.42234        6.64681
C          7.60545       -5.02713        1.84864
C         10.27301       -3.50188        1.60061
C          3.88126        2.44713       -0.32477
C          2.68729        1.56142        0.04929
C          1.66720        2.30064        0.91889
S          0.24712        1.29359        1.53253
H          3.34311       -1.52845       -4.84272
H          4.59175       -0.58112       -5.30606
H          4.51338       -1.07986       -2.84612
H          3.06014       -0.06663       -2.86133
H          4.43039        1.84242       -3.78126
H          5.86244        0.81011       -3.77575
H          6.59405        2.80371       -1.52743
H          8.15365        1.16325       -0.03569
H          9.27956       -0.62216        1.21378
H          5.72233       -3.06548        0.88260
H          4.61536       -1.27891       -0.35195
H          7.33810       -2.86585        4.27614
H          8.82983       -1.94323        4.12042
H         10.18349       -4.03760        4.62555
H          8.68411       -4.96339        4.78806
H          6.56252       -5.01084        2.19586
H          8.12492       -5.83519        2.38488
H          7.59564       -5.28805        0.78085
H         10.81349       -2.55872        1.76531
H         10.34554       -3.73959        0.52987
H         10.79801       -4.29295        2.15666
H          3.52220        3.33144       -0.88632
H          4.33123        2.85172        0.60266
H          3.01856        0.66013        0.59148
H          2.17486        1.19904       -0.86005
H          1.27080        3.18323        0.39651
H          2.14593        2.65655        1.84404
H         -0.19838        0.90228        0.31494
