38

N          2.29291       -0.43911       -0.27005
C          3.57565       -0.41397        0.47003
C          3.67770        0.82517        1.36463
C          4.96203        0.93141        2.17404
Sb         5.25129        2.99405        3.16717
C          3.65427        2.49355        4.75820
C          4.19999        2.72564        6.16681
C          4.99221        1.53941        6.73026
C          2.41256        3.31969        4.45897
C          6.78873        3.57534        1.59867
C          8.18104        3.11213        1.95058
N          9.19642        3.48686        0.92321
H          2.32142       -1.14306       -1.01027
H          2.16905        0.46065       -0.74099
H          4.46226       -0.43811       -0.19625
H          3.62306       -1.32517        1.09021
H          2.79990        0.84301        2.03359
H          3.57150        1.72396        0.72394
H          5.85157        0.76643        1.54259
H          4.99228        0.20145        2.99873
H          5.45874        4.59664        4.00417
H          6.57486        2.26042        4.18709
H          3.97123        3.67957        2.05506
H          3.44027        1.42106        4.60910
H          3.36738        2.96219        6.86198
H          4.84531        3.62739        6.16686
H          4.35489        0.64339        6.80979
H          5.39345        1.75752        7.73302
H          5.83874        1.29456        6.07340
H          2.64283        4.40018        4.46093
H          1.61288        3.15873        5.20958
H          1.99682        3.08846        3.46746
H          6.73059        4.66885        1.49403
H          6.42616        3.10816        0.66686
H          8.16402        2.01933        2.13860
H          8.49707        3.57609        2.90083
H          8.87375        3.13991        0.01615
H         10.07416        2.99271        1.11353
