15

S          0.90566        0.13253       -0.21261
C          2.74931        0.00540       -0.13393
C          3.20928       -0.12932        1.31693
C          4.73344       -0.22737        1.44071
B          5.29323       -0.34746        2.96509
Cl         4.65745       -2.06862        3.72263
F          6.71447       -0.37166        2.98634
H          0.78922        0.24508       -1.55765
H          3.17725        0.90575       -0.59725
H          3.05954       -0.87289       -0.71715
H          2.75082       -1.02361        1.76975
H          2.84379        0.73497        1.89830
H          5.19314        0.67664        0.99341
H          5.09856       -1.08740        0.84816
H          4.84303        0.51186        3.72427
