31

C          0.90334        0.36715       -1.36064
C          2.19784        0.22818       -0.54794
C          2.99374       -1.06628       -0.87591
C          2.54720       -2.40920       -0.25528
C          3.05737       -2.67927        1.18363
C          2.72461       -1.74556        2.44154
C          1.31114       -1.32852        3.02741
C          0.33800       -2.47656        3.56851
F          0.38002       -2.48566        4.93436
F         -0.92857       -2.20574        3.21825
F          0.66318       -3.70667        3.17117
F          1.64131       -0.56816        4.13775
F          0.64391       -0.48826        2.21782
F          3.34771       -2.35797        3.50518
F          3.36795       -0.55173        2.23270
F          2.75561       -3.95244        1.56658
F          4.45290       -2.60060        1.20003
C          1.00499       -2.69095       -0.41690
O          0.57053       -2.90569       -1.55979
O          0.39872       -2.57074        0.68324
I          3.64151       -3.97208       -1.48454
C          3.11679        1.43517       -0.79156
H          0.20414       -0.45540       -1.17390
H          1.11985        0.37491       -2.44125
H          0.39882        1.31303       -1.10878
H          1.92537        0.23932        0.51233
H          4.05281       -0.91107       -0.61990
H          2.95266       -1.20582       -1.96558
H          3.45355        1.47270       -1.84087
H          4.01136        1.39209       -0.15278
H          2.59124        2.37841       -0.57847
