20

In         0.62951        0.63383        0.72884
C          0.00548       -1.50977        0.92118
C         -1.39275       -1.81464        0.36812
C         -0.25118        1.43109       -1.21730
C          0.42053        0.81184       -2.44458
C         -0.07105        1.26264       -3.82245
O          0.36651        0.87333       -4.88847
O         -1.09006        2.17161       -3.79080
F          2.63042        0.54211        0.18829
H          0.51115        1.74707        2.10518
H          0.07516       -1.81654        1.97680
H          0.76748       -2.09030        0.37707
H         -2.17670       -1.25028        0.89985
H         -1.67171       -2.88393        0.43914
H         -1.47978       -1.53747       -0.69481
H         -0.11346        2.52465       -1.18390
H         -1.33169        1.20534       -1.17915
H          0.32508       -0.28733       -2.44660
H          1.50875        0.98463       -2.42687
H         -1.25201        2.31668       -2.82585
