41

C          8.76963        0.18561        3.32235
C          7.98865       -0.44761        2.16761
C          8.38220        0.10414        0.79401
C          7.58961       -0.49992       -0.36931
C          7.98299        0.06541       -1.74131
C          7.18421       -0.53110       -2.90599
Ga         7.65061        0.27039       -4.67883
C          6.19321        0.03717       -6.16476
C          5.74156       -1.30952       -6.80100
C          5.32385       -2.43598       -5.79381
C          4.60707       -3.68026       -6.43661
F          3.35813       -3.37835       -6.84654
F          5.29501       -4.17133       -7.48355
F          4.50662       -4.65780       -5.50442
F          6.43070       -2.89853       -5.16308
F          4.46239       -1.94437       -4.85666
F          4.66628       -1.10580       -7.64434
F          6.76274       -1.79634       -7.55809
F          5.02820        0.61905       -5.63908
F          6.52249        0.82316       -7.26759
S          9.68960       -0.99579       -5.24447
O         10.64424       -0.81994       -4.12840
O          9.50112       -2.36262       -5.76759
C         10.59437       -0.11732       -6.71168
F         10.93448        1.15718       -6.39773
F         11.72939       -0.78056       -7.03838
F          9.80362       -0.07308       -7.81174
H          8.47287       -0.23242        4.29551
H          8.60459        1.27320        3.36129
H          9.85170        0.02320        3.20453
H          6.90750       -0.29132        2.32462
H          8.13967       -1.54054        2.17523
H          9.46009       -0.06906        0.62733
H          8.25014        1.20136        0.79256
H          6.50983       -0.33185       -0.20237
H          7.72767       -1.59586       -0.37785
H          9.05894       -0.10865       -1.90846
H          7.85544        1.16258       -1.72177
H          6.10262       -0.37036       -2.75471
H          7.33208       -1.62088       -2.95137
H          8.12594        1.76542       -4.80047
