49

N          1.31093        2.62992       -0.39318
C          2.55879        3.19225       -0.94499
C          3.45258        2.08517       -1.49814
C          4.76330        2.61155       -2.09326
C          5.78719        1.54911       -2.48279
Nb         7.28061        2.41013       -1.15745
C          8.49262        0.83472        0.01648
C          7.91574       -0.10858        1.12734
C          6.69524       -0.99582        0.72181
F          5.61797       -0.24911        0.39334
F          6.97702       -1.80276       -0.32289
F          6.33323       -1.78972        1.76357
F          8.87534       -1.00395        1.56961
F          7.52756        0.60958        2.22066
F          9.10765       -0.08845       -0.86497
F          9.57058        1.44394        0.71313
C          7.91720        4.18106       -2.39541
C          8.70918        5.35858       -1.81400
C          9.91378        4.93657       -0.95927
C         11.02173        4.22974       -1.75390
N         11.71218        3.26264       -0.90748
C         12.79556        2.54023       -1.36715
N         13.60429        2.84084       -2.33604
N         13.05964        1.39451       -0.60275
H          0.76227        3.36788        0.05173
H          1.54571        1.96952        0.35161
H          3.14078        3.77971       -0.20825
H          2.28253        3.88437       -1.75802
H          2.89806        1.51016       -2.25749
H          3.69300        1.38127       -0.68340
H          5.20242        3.31028       -1.30787
H          4.55914        3.29018       -2.93735
H          6.06086        1.54217       -3.54576
H          5.50435        0.53368       -2.16731
H          8.99656        2.27438       -1.55264
H          6.66851        2.35476        0.50587
H          6.82535        3.91477       -0.36754
H          6.93822        4.56324       -2.75247
H          8.43815        3.76256       -3.27815
H          8.03502        5.94226       -1.16638
H          9.05581        6.05466       -2.60627
H          9.54350        4.24996       -0.18042
H         10.33837        5.80585       -0.42973
H         11.75036        4.97188       -2.12003
H         10.58834        3.72821       -2.63735
H         11.06207        2.73198       -0.32761
H         13.33268        3.72986       -2.76244
H         12.23112        0.89024       -0.29270
H         13.72047        0.79230       -1.08428
