14

C          1.22590       -0.06770        0.03095
C          0.61026       -1.16859        0.87173
C         -0.92414       -1.18593        0.77688
C         -1.59137       -2.26954        1.63387
S          2.99791       -0.03720        0.08077
H          0.87416        0.93256        0.33721
H          0.85412       -1.14876        1.97583
H          0.99250       -2.14970        0.52715
H         -1.20625       -1.30002       -0.28368
H         -1.30567       -0.19384        1.08071
H         -1.27871       -3.27700        1.31305
H         -2.69219       -2.23006        1.57859
H         -1.30520       -2.16646        2.69312
H          3.38078       -0.44205       -1.18707
