57

C          1.91855        0.30756       -1.46379
Al         3.43457       -0.24179       -0.23338
C          4.22814        1.43715        0.63989
C          3.54195        2.19936        1.61087
C          4.08205        3.34930        2.19753
C          5.36211        3.81817        1.83654
C          6.06680        3.06957        0.86846
C          5.51265        1.91898        0.29866
Si         6.11829        5.34998        2.59345
C          7.81577        4.92719        3.36903
C          7.77323        3.71614        4.31011
C          9.10577        3.45258        4.98673
C          9.15230        2.28983        6.04236
C          8.78309        0.81584        5.62454
C          9.62131        0.03059        4.53295
C         11.16349       -0.16713        4.77912
C         11.82968       -1.26988        3.87089
F         11.43221       -2.50392        4.22378
F         11.54633       -1.06986        2.57303
F         13.16942       -1.19801        4.03388
F         11.81314        0.99619        4.53292
F         11.38616       -0.53402        6.06959
F          9.05759       -1.20996        4.47722
F          9.44750        0.63316        3.33354
F          8.82020        0.07522        6.76843
F          7.50303        0.81401        5.16700
F         10.39604        2.25085        6.60321
F          8.26171        2.60854        7.03111
F         10.10025        3.21144        4.06813
F          9.50785        4.56485        5.70423
C          6.45222        6.69401        1.30056
C          5.00622        6.06800        3.94878
C          2.79239       -1.50230        1.23126
C          2.26803       -2.85582        0.72065
H          2.27319        0.97926       -2.26418
H          1.10749        0.83946       -0.93559
H          1.45912       -0.56465       -1.96132
H          4.66570       -0.93084       -1.09641
H          2.54125        1.88463        1.92899
H          3.49612        3.89142        2.94773
H          7.06694        3.39163        0.55145
H          6.10007        1.36691       -0.44357
H          8.18551        5.81717        3.90272
H          8.52786        4.73277        2.55166
H          7.47635        2.81666        3.75284
H          7.02946        3.85329        5.10967
H          7.08625        6.30608        0.49054
H          6.95768        7.56625        1.74167
H          5.51112        7.03634        0.84732
H          4.81736        5.34363        4.75408
H          4.03014        6.36446        3.53907
H          5.46735        6.96034        4.39750
H          2.00332       -1.00663        1.82864
H          3.62410       -1.67702        1.93877
H          1.42404       -2.72437        0.02269
H          1.91690       -3.53691        1.52049
H          3.04974       -3.39769        0.16193
