23

Br         1.16422        0.28781        0.12811
Ga         3.25163       -0.68109       -0.41497
S          4.29158       -1.43611        1.69263
O          3.28442       -2.06986        2.55863
O          5.49526       -2.21057        1.33869
C          5.09053       -0.08539        2.90720
C          4.23083        1.14773        3.27428
F          3.07995        0.78805        3.87034
F          4.90226        1.96562        4.13776
F          3.94517        1.86761        2.17095
F          5.38133       -0.75649        4.05730
F          6.25543        0.36411        2.36986
C          4.47740        0.84831       -1.14888
C          4.79653        0.70204       -2.65867
C          5.72216        1.76561       -3.34127
F          5.20753        3.00798       -3.25222
F          6.95379        1.77216       -2.79541
F          5.85879        1.47148       -4.66204
F          5.39619       -0.51092       -2.86096
F          3.61360        0.71550       -3.35037
F          3.90634        2.09499       -0.97463
F          5.69191        0.87884       -0.48154
H          3.16143       -2.05158       -1.14943
