31

N          1.38220        1.09983       -2.51990
C          2.80535        1.34449       -2.14189
C          2.98599        1.51309       -0.64456
In         5.08948        1.92204        0.06375
C          6.03880       -0.19216        0.47796
C          6.17581       -1.24845       -0.63515
F          4.97740       -1.48685       -1.23237
F          7.03679       -0.83303       -1.60337
F          6.64162       -2.46433       -0.20501
F          7.33360       -0.08901        1.01883
F          5.28377       -0.84027        1.47175
C          6.34483        3.11191       -1.39393
C          7.15507        2.43688       -2.51296
C          6.26360        1.78311       -3.57673
C          8.11623        3.42888       -3.19697
H          1.27425        1.18191       -3.53593
H          0.81345        1.84838       -2.11547
H          3.22113        2.22604       -2.66880
H          3.37606        0.47153       -2.49917
H          2.61652        0.61969       -0.11707
H          2.38125        2.36818       -0.29126
H          5.11370        2.65874        1.68197
H          7.03180        3.68586       -0.74929
H          5.66272        3.85728       -1.84598
H          7.77508        1.63958       -2.06708
H          5.61818        2.53861       -4.05599
H          5.61031        1.01573       -3.14293
H          6.86506        1.30695       -4.36820
H          7.54883        4.24172       -3.68120
H          8.73028        2.93929       -3.97299
H          8.79628        3.89010       -2.46532
