22

C          0.83393       -0.30722       -0.27104
C          2.34763       -0.09647       -0.20176
C          3.15951       -1.16099       -0.97872
C          2.85967       -1.26104       -2.47165
S          2.94877        0.06005       -3.43718
O          3.85185        1.09921       -2.93328
O          2.91060       -0.23250       -4.87136
F          1.42172        0.97339       -3.32653
C          2.13381       -2.47381       -2.99536
C          4.66473       -1.01101       -0.67601
H          0.29522        0.46120        0.30480
H          0.54811       -1.29188        0.13537
H          0.49111       -0.24753       -1.31267
H          2.67655       -0.10297        0.85459
H          2.60011        0.89638       -0.60619
H          2.84617       -2.14289       -0.57092
H          1.11095       -2.60018       -2.57994
H          2.68656       -3.40082       -2.74953
H          2.04181       -2.42996       -4.08863
H          5.03338       -0.05681       -1.07637
H          5.23391       -1.81898       -1.15862
H          4.86473       -1.04143        0.40996
