55

C          0.80703        0.27638       -0.14704
C          2.33415        0.17036       -0.13786
C          2.91193       -0.13172        1.24814
C          4.43943       -0.24088        1.27442
C          5.00673       -0.57129        2.65814
C          6.53466       -0.67498        2.69895
C          7.08310       -1.01515        4.09012
C          8.61438       -1.09334        4.17046
Si         9.29067       -1.31678        5.94945
C          8.63555       -0.01246        7.08737
C          7.46089       -0.19694        7.85447
C          6.89346        0.81149        8.62608
C          7.47033        2.13320        8.69542
C          8.67589        2.30370        7.92314
C          9.21699        1.28826        7.16110
N          7.00129        3.17409        9.39519
C          5.78760        2.96789       10.11278
C          5.37887        4.26969       10.82011
C          4.15390        4.21402       11.70969
O          3.42361        5.15380       11.95284
O          3.89801        3.00104       12.29727
C          8.80442       -3.05878        6.53679
C         11.18610       -1.24836        5.81724
H          0.41898        0.48944       -1.15355
H          0.46161        1.07965        0.52104
H          0.34276       -0.65976        0.19877
H          2.77139        1.11044       -0.51551
H          2.65419       -0.61621       -0.84267
H          2.47332       -1.07284        1.62561
H          2.59106        0.65363        1.95501
H          4.87815        0.70790        0.91736
H          4.76197       -1.01338        0.55317
H          4.56863       -1.52218        3.01104
H          4.67867        0.19648        3.38020
H          6.97418        0.28158        2.36420
H          6.87227       -1.43552        1.97130
H          6.64333       -1.97382        4.41915
H          6.72570       -0.26064        4.81119
H          9.04701       -0.15475        3.77884
H          8.99409       -1.90077        3.51720
H          6.96538       -1.17509        7.84987
H          5.98640        0.58821        9.19162
H          9.15037        3.28794        7.96163
H         10.13288        1.50045        6.59718
H          5.89390        2.15027       10.89301
H          4.93721        2.62588        9.47211
H          5.22268        5.06691       10.08173
H          6.22861        4.59870       11.44371
H          4.56546        2.36728       11.95152
H          7.71331       -3.17403        6.60991
H          9.22480       -3.26474        7.53171
H          9.17536       -3.82790        5.84197
H         11.52577       -0.25351        5.49374
H         11.56518       -1.98338        5.09061
H         11.65309       -1.45613        6.79084
