35

N          2.56548        1.18362        0.70336
C          2.70795       -0.22102        0.27805
C          3.11667       -0.32428       -1.19345
C          4.47762        0.29214       -1.54308
B          5.01996        0.01491       -3.05292
S          4.03115        1.06824       -4.36940
O          3.84141        2.46963       -3.99783
O          4.38979        0.78104       -5.75208
F          2.47892        0.42970       -4.23947
C          6.57248        0.43866       -3.23083
C          7.55751       -0.56934       -3.26763
C          8.92144       -0.26836       -3.32295
C          9.35724        1.06153       -3.36474
C          8.39801        2.07284       -3.34047
C          7.03042        1.76794       -3.26468
C          8.81725        3.51619       -3.40786
F         10.17484        3.67808       -3.40572
F          8.35899        4.13676       -4.53417
F          8.34173        4.24437       -2.35389
C          9.96201       -1.35190       -3.34051
F          9.43855       -2.60534       -3.30977
F         10.76075       -1.29055       -4.45373
F         10.81910       -1.26346       -2.27132
H          2.08887        1.23964        1.60400
H          1.97932        1.68221        0.03033
H          1.78019       -0.81308        0.42724
H          3.48662       -0.68418        0.90993
H          2.32503        0.13244       -1.81144
H          3.12111       -1.39251       -1.46925
H          5.23501       -0.14143       -0.86152
H          4.47229        1.37096       -1.31557
H          4.83202       -1.12670       -3.44213
H          7.24064       -1.61303       -3.25239
H         10.41837        1.30058       -3.41860
H          6.30332        2.58327       -3.24584
