13

C          1.04548       -0.34025        0.28946
C          2.49619        0.02467        0.10831
C          2.90266        1.36758        0.48546
C          2.71474        1.99381        1.92555
F          1.40644        1.92927        2.31063
F          3.43716        1.33354        2.86448
F          3.07273        3.32349        2.03577
F          4.26719        1.61551        0.23937
F          2.15478        2.29329       -0.30042
Br         3.63699       -1.35199        0.99224
H          0.42418        0.46074       -0.14297
H          0.70233       -0.49484        1.33918
H          0.80828       -1.26549       -0.26080
