14

O          1.78227       -0.09846        0.13416
Nb         3.71168        0.06755       -0.03331
S          4.07796        0.81504       -2.41768
O          4.15813        2.09572       -3.14707
O          5.35257        0.33022       -1.72335
C          4.01455       -0.41588       -3.90419
F          2.77007       -0.37855       -4.46386
F          4.90107       -0.04815       -4.86144
F          4.27566       -1.69602       -3.57791
F          3.94669        0.18867        1.88204
H          1.34817       -0.77151       -0.40767
H          4.04332        1.80657       -0.30699
H          3.39038       -1.24775       -1.19060
H          4.86978       -1.26243        0.14797
