43

C          1.44454       -3.24354        0.08266
C          1.36223       -1.71476        0.02414
C          2.53069       -1.01938       -0.70212
Ta         2.60004       -1.35443       -2.88125
C          4.50538       -1.50596       -3.97719
C          4.97262       -0.51466       -5.06639
C          5.74205        0.68815       -4.52946
O          6.86854        0.98174       -4.90043
O          5.10923        1.42989       -3.60252
C          0.61396       -0.65520       -3.66272
C          0.13646        0.77610       -3.36917
C         -1.28408        1.03931       -3.91226
C         -1.79720        2.44291       -3.66821
C         -3.25333        2.70269       -4.16429
F         -3.35837        2.47411       -5.49611
F         -4.13027        1.88436       -3.53241
F         -3.64057        3.97754       -3.93319
F         -1.80036        2.75746       -2.32464
F         -1.01174        3.38577       -4.29619
C          2.55317        0.48611       -0.36150
H          0.58914       -3.66531        0.63301
H          2.36677       -3.56209        0.59226
H          1.47218       -3.68670       -0.92197
H          1.30056       -1.32284        1.06049
H          0.40478       -1.41890       -0.44441
H          3.47882       -1.46780       -0.34327
H          1.82599       -2.72926       -3.72203
H          3.22167       -2.97650       -2.32828
H          2.97185        0.43618       -3.34573
H          4.37600       -2.50437       -4.43542
H          5.29931       -1.64900       -3.21893
H          4.10208       -0.12796       -5.62727
H          5.64223       -0.99042       -5.79817
H          4.18215        1.01879       -3.43688
H         -0.15724       -1.37750       -3.33182
H          0.67873       -0.80122       -4.75959
H          0.83735        1.50152       -3.80616
H          0.12866        0.97482       -2.28555
H         -1.99790        0.33931       -3.45067
H         -1.31280        0.86050       -4.99812
H          1.66004        1.01516       -0.72966
H          3.42646        1.00125       -0.78357
H          2.57577        0.63686        0.73585
