28

N          0.85650        0.32199        0.23331
C          2.28492        0.14356       -0.10343
C          2.90693       -0.82378        0.90828
C          4.44717       -0.84964        0.99296
S          5.22753       -1.37527       -0.58967
O          4.74097       -0.57993       -1.70352
O          6.63404       -1.68682       -0.42759
C          4.48812       -3.10867       -1.02395
F          4.68086       -4.03486       -0.04949
F          3.15986       -3.06528       -1.29039
F          5.11402       -3.55100       -2.13692
C          4.98604        0.67727        1.33801
O          4.45501        1.09122        2.38943
O          5.79030        1.16755        0.53381
C          4.81296       -1.76963        2.15497
O          6.23955       -1.68913        2.44991
C          6.68303       -2.50183        3.40210
F          6.05640       -2.33568        4.61613
F          6.53702       -3.83880        3.10588
F          7.99882       -2.27567        3.59281
H          0.41506        0.91062       -0.47490
H          0.78852        0.84366        1.11072
H          2.86035        1.08483       -0.09939
H          2.34544       -0.26616       -1.11939
H          2.47717       -1.82947        0.77406
H          2.61061       -0.47564        1.91143
H          4.54914       -2.82190        1.97846
H          4.26723       -1.37822        3.02513
