58

N          3.20161       -0.51738       -1.36520
C          2.97513        0.19092       -0.12805
C          3.25968       -0.36935        1.11140
C          2.85332        0.23476        2.37184
C          3.11837       -0.34325        3.59245
C          3.81394       -1.58661        3.73970
C          4.22324       -2.18730        2.51267
C          3.97249       -1.62839        1.27591
Si         4.08972       -2.34790        5.38289
C          2.46055       -3.09068        6.09965
C          2.52892       -3.56786        7.55825
C          1.24655       -4.22644        8.03980
C          1.25467       -4.83590        9.48496
C          1.56741       -3.93238       10.73436
C          0.66239       -2.69877       11.10554
C         -0.86357       -2.94455       11.40044
C         -1.58860       -1.76068       12.14388
F         -1.36626       -0.58603       11.52526
F         -2.92062       -1.99584       12.14372
F         -1.18764       -1.66200       13.42532
F         -1.52290       -3.13463       10.22996
F         -1.01558       -4.04739       12.18364
F          1.21131       -2.18061       12.25822
F          0.77040       -1.76045       10.13390
F          1.58421       -4.76120       11.81730
F          2.83743       -3.42829       10.58666
F          0.05139       -5.44735        9.73028
F          2.21515       -5.81459        9.50839
F          0.18076       -3.35662        7.97224
F          0.92400       -5.29983        7.23217
C          5.34243       -3.77664        5.30838
C          4.70745       -1.08438        6.66885
C          2.32129        1.52591       -0.33140
C          0.80574        1.46879       -0.62638
C          0.20185        2.83332       -0.96924
H          3.31766       -1.51631       -1.19401
H          4.05287       -0.20455       -1.85080
H          2.30443        1.17919        2.35367
H          2.77136        0.18559        4.48861
H          4.77818       -3.13204        2.53966
H          4.36124       -2.14305        0.39241
H          2.17207       -3.92238        5.43825
H          1.67511       -2.32667        5.99088
H          2.74197       -2.72411        8.22898
H          3.33701       -4.30156        7.70160
H          5.01436       -4.55824        4.60786
H          5.48103       -4.24780        6.29356
H          6.32463       -3.41695        4.97022
H          4.00859       -0.23928        6.75905
H          5.67586       -0.67287        6.34989
H          4.83907       -1.52097        7.67170
H          2.80450        2.03958       -1.19064
H          2.49343        2.18034        0.53963
H          0.29325        1.03804        0.24902
H          0.64812        0.76522       -1.45910
H          0.33347        3.54744       -0.14031
H         -0.87635        2.76841       -1.18281
H          0.69116        3.26972       -1.85502
