24

C          0.76270        0.35760       -0.14291
C          2.22535        0.34137        0.32461
C          3.12789        1.37529       -0.35530
B          4.68769        1.45360        0.17541
C          5.48915        0.02032       -0.11522
C          6.89759       -0.03203        0.45247
N          7.61335       -1.30629        0.14284
N          5.36615        2.70181       -0.49023
H          0.14333       -0.40089        0.36781
H          0.69518        0.16979       -1.22720
H          0.30477        1.34326        0.04140
H          2.63468       -0.67282        0.16803
H          2.25670        0.50583        1.41724
H          2.67672        2.37870       -0.22299
H          3.10741        1.18747       -1.45268
H          4.68443        1.63834        1.41720
H          5.54138       -0.17269       -1.20786
H          4.91815       -0.82794        0.32081
H          6.84098        0.15599        1.54401
H          7.50205        0.78685        0.02241
H          6.98553       -2.07734        0.38658
H          8.42624       -1.40689        0.75912
H          5.47359        2.55909       -1.50104
H          6.31829        2.84392       -0.14400
