17

Cl         1.02356        2.40565       -0.22919
Ga         2.27670        2.21248        1.62088
C          4.06532        1.40747        0.85097
C          5.01828        0.80238        1.91885
C          6.38265        0.17678        1.44892
C          7.25085       -0.50801        2.56887
F          7.56907        0.35105        3.55535
F          6.62592       -1.57206        3.10945
F          8.40887       -0.94994        2.01511
F          6.15999       -0.78451        0.50905
F          7.16772        1.14528        0.90076
F          5.32734        1.77839        2.82538
F          4.33461       -0.18977        2.57776
F          3.75422        0.37788       -0.03229
F          4.79505        2.32976        0.11989
I          2.77531        4.63812        2.49394
H          1.56110        1.36000        2.72289
