27

N          2.70292       -1.47125        0.22458
C          2.17143       -0.13542       -0.01433
C          2.79635        1.04321        0.82059
S          1.98428        2.61346        0.21833
O          0.76680        2.24648       -0.49687
O          1.94943        3.68238        1.19913
C          3.08534        3.30695       -1.21955
F          3.69546        2.33258       -1.91829
F          2.21663        3.93505       -2.05433
F          3.97746        4.20936       -0.81621
C          2.62275        0.90073        2.34867
C          1.17882        0.56931        2.90825
C          0.98886        0.74409        4.45892
F          1.92962        0.07817        5.15714
F          1.00829        2.03563        4.82541
F         -0.22232        0.23614        4.81055
F          0.24485        1.36127        2.31897
F          0.86248       -0.73351        2.63045
F          3.40777       -0.15703        2.77969
F          3.04610        1.99687        3.03858
C          4.47283        1.17866        0.57189
O          4.97252        0.16060        0.06426
O          4.92849        2.26851        0.93384
H          2.46449       -1.78482        1.16473
H          3.72569       -1.38363        0.18342
H          1.08088       -0.14542        0.10615
H          2.36453        0.11708       -1.06548
