17

C          0.92317        0.06970       -0.01432
Al         2.82692       -0.47603       -0.39041
C          3.83012        1.09513       -1.27940
O          3.86334        2.31936       -0.39945
C          4.55948        3.34974       -0.81705
F          4.14492        3.88630       -2.02271
F          4.47065        4.36207        0.09841
F          5.91066        3.10896       -0.99107
N          3.63351       -1.08825        1.18584
H          0.40155        0.41552       -0.92329
H          0.86101        0.89237        0.71906
H          0.33769       -0.77043        0.39555
H          2.97871       -1.64614       -1.54684
H          3.37874        1.41664       -2.23461
H          4.88290        0.83609       -1.48540
H          3.68362       -0.43763        1.97046
H          4.56064       -1.50562        1.10043
