59

N          3.87910        1.55870        4.41980
C          3.68578        0.10087        4.31857
C          4.64557       -0.51371        3.30354
C          4.48078       -2.03000        3.15586
C          5.37615       -2.63238        2.07820
Nb         7.54235       -2.57199        1.86592
C          8.22263       -0.81012        0.71790
C          7.76152        0.51192        0.92456
C          8.15682        1.57897        0.11969
C          9.05345        1.36239       -0.94174
C          9.52906        0.06431       -1.18090
C          9.10921       -0.99223       -0.36942
C          9.47471        2.50851       -1.81055
C         10.49657        3.54736       -1.20454
C         11.91113        3.06468       -0.70357
C         12.98534        2.46416       -1.70271
C         13.43961        3.33480       -2.93356
C         14.78739        2.85616       -3.59778
F         14.75876        1.53968       -3.87089
F         14.95324        3.52960       -4.75734
F         15.84545        3.11720       -2.81013
F         12.48623        3.28997       -3.89440
F         13.62914        4.62675       -2.55542
F         14.09504        2.24066       -0.93626
F         12.54686        1.27001       -2.16468
F         12.49609        4.15003       -0.11432
F         11.73338        2.11646        0.24919
F         10.71621        4.54382       -2.11666
F          9.91055        4.11587       -0.11128
F         10.02477        2.08164       -2.99848
F          8.38541        3.29979       -2.14610
C          8.77235       -4.20499        2.85826
C          9.92621       -4.88743        2.12165
C         11.19967       -4.07195        1.89963
O         12.23349       -4.57872        1.44451
N         11.12158       -2.75654        2.23846
H          3.18271        1.96691        5.04517
H          3.72670        1.98626        3.50385
H          2.64836       -0.18676        4.04708
H          3.88204       -0.33138        5.31388
H          5.68203       -0.28559        3.60068
H          4.48278       -0.03236        2.32060
H          3.40990       -2.24888        2.96547
H          4.72907       -2.50564        4.11898
H          5.06736       -2.27914        1.06406
H          5.26568       -3.73774        2.05327
H          7.77855       -3.95904        0.70227
H          7.25476       -2.54337        3.60465
H          8.72848       -1.69989        2.87249
H          7.07428        0.72662        1.74852
H          7.76790        2.58116        0.30774
H         10.21396       -0.12092       -2.00894
H          9.49165       -1.99172       -0.59622
H          7.93307       -4.92564        2.94384
H          9.08008       -3.95629        3.88363
H          9.60344       -5.20767        1.11604
H         10.27057       -5.80553        2.63438
H         10.23236       -2.33262        2.54582
H         11.91379       -2.16453        2.01776
