34

O          1.25345       -0.53988        0.98918
B          2.73845       -0.34233        1.12531
C          3.53373       -1.57215        0.39385
C          4.74361       -2.10000        0.87478
C          5.42549       -3.13157        0.21273
C          4.91596       -3.68179       -0.96490
C          3.70871       -3.17578       -1.46072
C          3.03313       -2.15045       -0.78929
C          3.11326       -3.78627       -2.69496
F          4.05065       -4.35804       -3.51451
F          2.21719       -4.78956       -2.40542
F          2.43054       -2.88837       -3.45959
C          6.71476       -3.64177        0.78580
F          7.67914       -2.67118        0.85947
F          6.57113       -4.11615        2.06391
F          7.26265       -4.66418        0.06212
C          3.16920        1.10400        0.43709
C          2.53533        2.32088        1.14780
C          1.05039        2.55394        0.84538
C          4.69388        1.28960        0.38323
H          1.00099       -1.29785        1.53268
H          3.10260       -0.32753        2.32484
H          5.15869       -1.68803        1.79878
H          5.44212       -4.48115       -1.48211
H          2.08312       -1.77629       -1.17885
H          2.79875        1.10416       -0.61101
H          3.09651        3.23944        0.87835
H          2.66897        2.19727        2.23841
H          0.89580        2.74588       -0.22944
H          0.65778        3.42353        1.39807
H          0.46150        1.66515        1.10665
H          5.13423        1.23027        1.39398
H          4.97729        2.27195       -0.03705
H          5.18493        0.51483       -0.22401
