17

N          1.90742        1.01050       -0.27144
C          2.31153       -0.19203       -0.76358
O          1.53117       -1.14566       -0.88560
C          3.78244       -0.32103       -1.16115
C          4.82478        0.54165       -0.38651
C          5.49684        1.69398       -1.09357
S          4.66843        3.08961       -1.40052
O          3.69866        3.33319       -0.31902
O          5.45883        4.19483       -1.91056
F          3.56954        2.86265       -2.71421
I          6.94141        1.14986       -2.56916
H          0.91110        1.11702       -0.11962
H          2.49289        1.85422       -0.29674
H          3.84085       -0.07811       -2.23455
H          4.00773       -1.39298       -1.07606
H          5.62673       -0.12665       -0.03662
H          4.36102        0.94562        0.52756
