49

O          2.11503       -6.09344       -3.39302
C          1.16063       -5.35800       -2.72773
O          1.11506       -5.38635       -1.51920
C          0.21229       -4.60141       -3.61361
C         -0.47514       -5.32922       -4.60326
C         -1.42656       -4.69738       -5.40513
C         -1.66456       -3.33156       -5.23625
C         -0.95371       -2.61236       -4.26823
C         -0.01039       -3.22107       -3.42167
In         1.07946       -1.91894       -1.99516
S          2.97842       -0.89386       -3.64227
O          3.08052       -1.48521       -4.97872
O          3.11252        0.56565       -3.54917
F          4.40058       -1.44609       -2.87976
C         -0.19251       -0.14205       -1.64785
C         -1.55622       -0.31106       -1.33937
C         -2.39704        0.77256       -1.08065
C         -1.87983        2.07633       -1.11965
C         -0.52556        2.27406       -1.42356
C          0.29864        1.17610       -1.68664
C         -2.79257        3.24490       -0.87853
C         -3.32274        3.46738        0.59079
C         -2.30247        3.66904        1.77452
C         -1.33953        4.92597        1.83148
C         -1.97898        6.36463        1.79959
C         -1.01383        7.50890        2.29490
F          0.17810        7.44623        1.67464
F         -1.58268        8.69950        2.00909
F         -0.81962        7.44749        3.62424
F         -2.33767        6.66893        0.53001
F         -3.07961        6.41019        2.59597
F         -0.67047        4.80611        3.01756
F         -0.43504        4.83798        0.82837
F         -3.04669        3.69618        2.91932
F         -1.48780        2.58553        1.83077
F         -4.16650        4.54301        0.59885
F         -4.05556        2.37002        0.93968
F         -2.21905        4.43275       -1.26431
F         -3.95607        3.11307       -1.61949
H          2.07840       -5.84487       -4.33452
H         -0.28880       -6.40050       -4.71943
H         -1.97798       -5.26965       -6.15325
H         -2.40280       -2.82310       -5.86054
H         -1.14543       -1.54037       -4.17020
H          2.06860       -2.49351       -0.69486
H         -1.99142       -1.31439       -1.30875
H         -3.45347        0.60811       -0.86501
H         -0.11933        3.28462       -1.47178
H          1.34284        1.35877       -1.95296
