62

N          3.69706        1.08601       -1.12436
C          2.68988        0.13870       -0.59496
Ga         2.97423       -0.31501        1.36218
C          2.03579        1.21819        2.47506
C          1.48081        0.94843        3.89839
C          2.51984        0.54641        4.99322
F          3.40691        1.53446        5.23139
F          1.86982        0.29478        6.16491
F          3.19532       -0.56641        4.65850
F          0.81937        2.05029        4.40905
F          0.56583       -0.06855        3.83640
F          2.84253        2.35888        2.60705
F          0.90195        1.66013        1.77334
C          4.94989       -0.34413        1.81995
C          5.77498        0.79981        1.83252
C          7.14473        0.72402        2.10984
C          7.77239       -0.50680        2.38955
C          6.95470       -1.65528        2.37899
C          5.58675       -1.56906        2.10230
Si         9.59897       -0.60090        2.80613
C          9.86032       -0.29471        4.67023
C         11.31106       -0.37247        5.16868
C         11.47215       -0.12097        6.67357
C         12.92426       -0.21440        7.15250
C         13.10497        0.02849        8.65404
C         14.56169       -0.07194        9.11744
C         14.75492        0.16852       10.61779
C         16.21559        0.06020       11.06321
C         10.29474       -2.31123        2.37017
C         10.56457        0.70715        1.82916
H          3.71965        1.07194       -2.14704
H          4.62995        0.80780       -0.81542
H          2.66367       -0.82558       -1.14258
H          1.68939        0.58850       -0.70067
H          2.30489       -1.70544        1.77131
H          5.33704        1.78042        1.62697
H          7.73417        1.64732        2.10374
H          7.39179       -2.63760        2.58895
H          4.99010       -2.48750        2.11053
H          9.23504       -1.02338        5.21515
H          9.43103        0.69409        4.90868
H         11.93471        0.35644        4.62156
H         11.73427       -1.36451        4.93171
H         10.85329       -0.84659        7.23001
H         11.06504        0.87515        6.92041
H         13.53914        0.51174        6.59132
H         13.32666       -1.21075        6.89610
H         12.49202       -0.69717        9.21743
H         12.70722        1.02546        8.91322
H         15.17429        0.65326        8.55231
H         14.95899       -1.06914        8.85642
H         14.14216       -0.55440       11.18256
H         14.36226        1.16596       10.87865
H         16.62368       -0.93859       10.84603
H         16.32600        0.23801       12.14231
H         16.84597        0.79360       10.53786
H          9.80205       -3.10735        2.94688
H         11.37331       -2.36699        2.57857
H         10.14457       -2.53219        1.30391
H         10.20633        1.72195        2.05408
H         10.44451        0.54623        0.74842
H         11.63950        0.67190        2.06029
