21

O          5.24645        1.00289        0.93704
N          4.15500        1.39971       -0.05869
C          4.51568        0.72043       -1.25579
C          4.39101       -0.82082       -1.18181
O          4.98283       -1.55624       -2.30580
C          6.35786       -1.81282       -2.12146
C          6.90554       -2.27512       -3.46453
O          8.26600       -2.68779       -3.30753
C          8.82511       -3.13458       -4.52091
H          5.85796        1.75617        0.85681
H          5.56557        0.94171       -1.64617
H          3.82058        1.08846       -2.03863
H          3.32769       -1.10589       -1.17683
H          4.85375       -1.16056       -0.24018
H          6.52300       -2.60845       -1.36268
H          6.89900       -0.91153       -1.78040
H          6.83912       -1.44866       -4.19941
H          6.29425       -3.11722       -3.84638
H          9.86576       -3.42412       -4.31822
H          8.81774       -2.34176       -5.29598
H          8.28162       -4.01280       -4.92612
