71

C          2.14523       -0.25699        0.96869
Si         3.93633       -0.53681        0.42758
C          4.31785       -2.35494        0.19005
C          3.36742       -3.37360        0.40114
C          3.72094       -4.72320        0.29049
C          5.02626       -5.10739       -0.02877
C          5.96752       -4.10119       -0.27158
C          5.62444       -2.75043       -0.16718
Sb         5.68395       -7.27505        0.16925
C          5.18236       -7.69005       -2.12816
C          6.23374       -7.32954       -3.18728
F          7.37613       -8.03552       -2.98706
F          5.84048       -7.58046       -4.47778
F          6.54326       -6.00999       -3.12721
F          4.89178       -9.03849       -2.31123
F          4.02662       -7.00137       -2.47922
C          6.01386       -6.82406        2.34606
C          6.77763       -7.89004        3.11576
C          7.00011       -7.47144        4.58234
C          7.90191       -8.34215        5.43296
C          7.45723       -9.82334        5.65408
F          7.54592      -10.54265        4.51771
F          8.23123      -10.42754        6.58603
F          6.17377       -9.87286        6.08764
F          9.17957       -8.39588        4.92192
F          8.01028       -7.79474        6.70196
C          4.22846        0.41951       -1.19744
C          3.39199       -0.11136       -2.36522
C          3.60417        0.54443       -3.72823
C          2.71486        1.78922       -4.11498
C          2.76778        3.14005       -3.30269
C          4.09170        3.99294       -3.17644
C          4.83009        4.56766       -4.45266
C          4.04493        5.51681       -5.43279
F          3.42149        6.50341       -4.76158
F          4.93515        6.07527       -6.27972
F          3.14168        4.84247       -6.15956
F          5.86712        5.30289       -3.95866
F          5.33919        3.54804       -5.18084
F          3.75755        5.06257       -2.39812
F          5.02041        3.26671       -2.50788
F          1.83101        3.96209       -3.86074
F          2.37318        2.87999       -2.02488
F          2.96348        2.10447       -5.41728
F          1.40892        1.39128       -4.02539
F          4.91484        0.89609       -3.93660
F          3.28633       -0.36876       -4.71347
C          5.09324        0.23342        1.70976
H          1.42429       -0.67088        0.24967
H          1.94151        0.81908        1.07021
H          1.95112       -0.73045        1.94125
H          2.33916       -3.11382        0.67145
H          2.96599       -5.49742        0.47286
H          6.99570       -4.38228       -0.52938
H          6.39349       -1.99141       -0.35125
H          3.95622       -7.70457        0.41511
H          7.34166       -6.72145       -0.25276
H          6.21049       -8.97333        0.29683
H          5.01195       -6.65262        2.77102
H          6.55249       -5.86364        2.35139
H          7.75430       -8.07491        2.63889
H          6.23164       -8.84562        3.07677
H          6.03565       -7.38644        5.10532
H          7.46537       -6.47324        4.61363
H          5.29837        0.35019       -1.44519
H          4.02245        1.47798       -0.98995
H          2.31414       -0.07120       -2.14846
H          3.62958       -1.17375       -2.53216
H          4.95008       -0.24211        2.69008
H          4.90841        1.31215        1.81989
H          6.14497        0.09380        1.42337
