33

N          1.18851       -0.39208       -0.38459
Ta         3.12807       -0.39778        0.12581
C          3.98700       -0.65854        2.26042
C          5.27961       -1.50507        2.53925
C          6.52490       -1.03287        1.71977
C          7.81021       -1.93065        1.81997
F          8.24268       -2.05069        3.09233
F          7.61099       -3.16492        1.31914
F          8.80746       -1.35395        1.10032
F          6.20634       -0.99272        0.39070
F          6.89987        0.21364        2.11279
F          5.64916       -1.46495        3.87252
F          5.07542       -2.82550        2.24491
F          4.21105        0.49457        3.02382
F          2.99793       -1.36787        2.99100
C          3.93933       -0.02364       -1.87358
C          3.61946        1.17356       -2.78138
C          4.34365        2.44132       -2.31141
C          3.94765        0.89092       -4.25892
H          0.40606        0.07260        0.06078
H          0.86030       -0.97454       -1.15882
H          2.37365        0.69603        1.29123
H          4.12403        1.04811        0.44023
H          3.54453       -2.14513        0.35170
H          3.51894       -0.95332       -2.34003
H          5.03515       -0.18766       -1.83962
H          2.53224        1.36537       -2.71681
H          5.43600        2.30515       -2.37760
H          4.10641        2.65649       -1.26132
H          4.07449        3.31078       -2.93283
H          5.02654        0.69938       -4.38344
H          3.67937        1.74139       -4.90926
H          3.41004        0.00188       -4.62347
