62

N          2.31744        1.05102       -1.06402
Al         3.67677       -0.06986       -0.49809
C          2.92366       -1.97395        0.06626
C          2.32477       -2.98195       -0.95532
C          3.37489       -3.77868       -1.80909
C          2.81113       -4.43279       -3.12343
F          1.71687       -5.18436       -2.87966
F          2.50010       -3.51020       -4.05198
F          3.76000       -5.24490       -3.65430
F          4.39540       -2.97083       -2.19218
F          3.88608       -4.80120       -1.06487
F          1.53231       -3.93315       -0.34885
F          1.51043       -2.29314       -1.82264
F          3.84441       -2.73857        0.81695
F          1.85414       -1.73790        0.95249
C          4.42047        0.65604        1.23893
C          5.23276       -0.06218        2.14241
C          5.74869        0.51564        3.30511
C          5.48631        1.86204        3.63302
C          4.68067        2.59363        2.73868
C          4.16548        2.00137        1.58075
Si         6.14174        2.60678        5.21669
C          7.97926        2.11287        5.40799
C          8.60956        2.51167        6.74794
C         10.05652        2.06590        6.87462
C         10.83168        2.51665        8.16598
C         10.27686        2.15539        9.59582
C         10.07832        0.65266       10.05124
C         11.32890       -0.30345       10.04335
C         11.12800       -1.63540       10.86315
F          9.99475       -2.26179       10.49981
F         12.17114       -2.45127       10.61042
F         11.09203       -1.39713       12.18626
F         11.61683       -0.65787        8.77054
F         12.40122        0.33541       10.58166
F          9.63085        0.72808       11.34000
F          9.09880        0.09724        9.29667
F         11.11156        2.74329       10.49564
F          9.04874        2.73461        9.73176
F         12.11042        2.04740        8.10335
F         10.88613        3.88346        8.15121
F         10.16231        0.69703        6.79847
F         10.81236        2.57394        5.84101
C          6.02054        4.49636        5.19618
C          5.18775        1.95217        6.71943
H          1.44756        1.08236       -0.53406
H          2.06500        1.02796       -2.05021
H          4.79652       -0.25254       -1.65929
H          5.46692       -1.11100        1.93976
H          6.36732       -0.09939        3.96845
H          4.45107        3.64416        2.94544
H          3.54302        2.60244        0.90951
H          8.53725        2.56242        4.57277
H          8.04999        1.02264        5.27269
H          8.05262        2.06794        7.58489
H          8.59119        3.60255        6.89183
H          6.57141        4.92005        4.34452
H          6.42633        4.93735        6.11890
H          4.97419        4.82213        5.11088
H          5.25588        0.85625        6.77874
H          4.12262        2.20740        6.62324
H          5.54820        2.37147        7.67096
