63

C          8.57309       -5.03038       -2.79882
C          8.21958       -3.72245       -2.08723
C          8.68788       -3.68107       -0.62944
C          8.35213       -2.37290        0.09214
C          8.83230       -2.33355        1.54603
C          8.51770       -1.02090        2.26942
C          9.00929       -0.98841        3.72237
C          8.70732        0.32621        4.45613
Si         9.31083        0.44346        6.26234
C          8.79547        2.08651        6.99715
C          7.42992        2.40702        7.14690
C          7.02683        3.63318        7.68624
C          7.94286        4.62242        8.10915
C          9.30441        4.28359        7.94708
C          9.72616        3.06093        7.41323
Al         7.35898        6.42199        8.90010
C          7.88633        6.47890       10.86985
C          7.23398        5.42922       11.77662
C          7.61327        5.51225       13.26473
C          6.92871        4.45432       14.13680
C          5.35589        6.63239        8.66186
C          8.55066       -0.99241        7.24513
C         11.19714        0.24815        6.28941
H          8.22602       -5.03249       -3.84184
H          8.11489       -5.89370       -2.29304
H          9.66113       -5.19500       -2.80879
H          7.12812       -3.56596       -2.12169
H          8.66374       -2.87327       -2.63366
H          9.77962       -3.84575       -0.59492
H          8.23851       -4.52722       -0.07961
H          7.26035       -2.20947        0.06360
H          8.79814       -1.52758       -0.46114
H          9.92240       -2.51014        1.57213
H          8.37810       -3.17348        2.10140
H          7.42829       -0.84198        2.25139
H          8.97066       -0.17956        1.71599
H         10.09697       -1.17992        3.72913
H          8.55420       -1.83397        4.26746
H          7.61969        0.51623        4.45488
H          9.15207        1.17470        3.90735
H          6.66355        1.68594        6.83628
H          5.95285        3.83075        7.77682
H         10.07194        5.00822        8.24346
H         10.79933        2.86252        7.31751
H          8.19458        7.60134        8.09947
H          7.64782        7.49104       11.25324
H          8.98807        6.39269       10.94536
H          7.48463        4.41560       11.41153
H          6.13252        5.50166       11.69924
H          7.36428        6.52055       13.63965
H          8.70940        5.41912       13.35876
H          5.83282        4.54648       14.07881
H          7.21490        4.53732       15.19717
H          7.18684        3.43846       13.79944
H          4.76943        5.86016        9.19051
H          5.05591        6.58775        7.60081
H          5.00877        7.60739        9.04615
H          7.45456       -0.90973        7.27592
H          8.90984       -0.97349        8.28407
H          8.80632       -1.97187        6.81415
H         11.69168        1.02659        5.69087
H         11.49947       -0.73001        5.88731
H         11.58350        0.32129        7.31602
