20

S          0.81265        0.00109       -0.12721
C          2.64612        0.04819        0.02340
C          3.26071        0.24429       -1.35901
C          4.79785        0.23797       -1.32262
N          5.33620        0.44100       -2.60910
C          6.69895        0.42211       -2.54392
O          7.22193        0.63919       -3.97957
C          8.50988        0.64665       -4.16868
F          9.21030        1.63321       -3.48430
F          9.17166       -0.52824       -3.83196
F          8.78358        0.85503       -5.49730
H          0.52526       -0.14518        1.18952
H          2.98599       -0.89760        0.46842
H          2.92300        0.87330        0.69432
H          2.92719        1.19979       -1.79428
H          2.92740       -0.55247       -2.04331
H          5.11566       -0.74094       -0.83237
H          5.11757        1.01715       -0.55377
H          7.18804       -0.54855       -2.22178
H          7.20126        1.24582       -1.94871
