20

O          1.92341        0.97241       -1.03075
C          1.87674       -0.35615       -0.64086
O          1.03417       -1.07072       -1.15718
C          2.89566       -0.76490        0.35354
Al         4.80855       -0.90414       -0.34695
C          5.61276        1.04004       -0.11274
C          6.27410        1.39958        1.23943
C          6.69385        2.88205        1.52473
F          7.52095        3.35940        0.57145
F          5.62465        3.70111        1.60743
F          7.35400        2.95880        2.71309
F          5.40717        1.06078        2.25056
F          7.40861        0.65055        1.37853
F          6.54485        1.35239       -1.10001
F          4.57567        2.00885       -0.28693
F          5.68170       -1.95076        0.68563
H          2.71907        1.38441       -0.64146
H          2.63175       -1.75055        0.75762
H          2.95256       -0.04154        1.18204
H          4.96549       -1.26066       -1.91053
