19

C          1.09748       -0.02776        0.11413
S          2.90307        0.17493        0.06036
C          3.40362       -1.02902        1.37443
C          4.90299       -1.11349        1.52203
Sb         5.48686       -2.66369        3.05070
F          7.15318       -1.47010        3.40075
N          4.43469       -1.41413        4.47879
H          0.66349        0.62817       -0.65267
H          0.69198        0.25686        1.09579
H          0.80987       -1.06643       -0.10622
H          2.97250       -2.00327        1.09137
H          2.94560       -0.71124        2.32235
H          5.34069       -0.17559        1.88842
H          5.40649       -1.40559        0.58896
H          4.04112       -3.65533        2.75338
H          6.05739       -3.70051        4.37412
H          6.47392       -3.54911        1.86518
H          5.09716       -0.64166        4.62102
H          4.48135       -1.93042        5.36572
