17

F          1.01418        0.51637        0.19490
C          2.29891        0.16872       -0.09437
C          2.93096       -0.57959        1.14968
C          2.33554       -1.97360        1.60054
S          3.25479       -3.54409        1.02431
O          4.48702       -3.50566        1.81370
O          2.29546       -4.58650        1.39369
O          3.41786       -3.31591       -0.41550
F          2.30916       -1.96908        2.96827
F          1.02578       -2.01506        1.18356
F          4.26688       -0.66911        0.93742
F          2.74806        0.32470        2.17414
C          2.29151       -0.48224       -1.52310
F          1.81397        0.46184       -2.39196
F          3.52741       -0.80747       -1.92166
F          1.48230       -1.53991       -1.60027
F          3.01652        1.33139       -0.22905
