13

N          1.64981        0.60215       -1.55421
In         3.21590       -0.11431       -0.32150
S          4.33090        2.10774        0.65115
O          5.62307        1.93995        1.37072
O          4.30111        3.15789       -0.40843
C          3.17201        2.71819        1.93285
F          2.24300       -0.83708        1.32625
H          1.92037        1.53807       -1.87431
H          0.85183        0.76594       -0.93137
H          4.45408       -1.20473       -0.88365
H          3.10450        1.96692        2.72847
H          2.19266        2.88666        1.46850
H          3.59978        3.65964        2.30354
