22

C          1.08045       -0.29713       -0.14989
C          2.58028        0.02124       -0.13867
C          2.98744        1.50284       -0.08009
P          2.55422        2.33759        1.66923
Cl         3.27088        4.68651        0.63794
C          0.75812        2.82525        1.19721
C          4.48106        1.63609       -0.34551
H          0.90996       -1.37723       -0.28575
H          0.56836        0.22639       -0.97242
H          0.58821        0.00308        0.78498
H          3.03337       -0.43094       -1.04406
H          3.05159       -0.50482        0.71396
H          2.43092        2.08560       -0.83100
H          2.35055        3.10974        2.90111
H          2.22817        1.08204        2.31642
H          3.98070        2.26118        2.00347
H          0.44444        2.51733        0.19038
H          0.70152        3.91641        1.27259
H          0.10083        2.35944        1.94968
H          5.06349        1.10247        0.42678
H          4.77783        2.69350       -0.31803
H          4.76041        1.20722       -1.32463
