40

N          5.41467       -0.24825        1.64338
C          4.32005       -0.28448        0.65610
C          2.95303       -0.21963        1.33919
C          2.71787        1.01646        2.15138
C          2.84541        2.29087        1.56063
C          2.59901        3.44527        2.29189
C          2.20865        3.36444        3.64155
C          2.05964        2.10191        4.23351
C          2.31060        0.94716        3.49534
C          1.98250        4.61591        4.42940
C          0.67887        5.44996        4.12352
C         -0.73972        4.78481        4.29583
C         -1.26987        4.32334        5.71720
C         -1.34251        5.38613        6.87673
C         -2.25698        4.95735        8.08836
F         -1.94014        3.72706        8.53194
F         -2.06642        5.83556        9.09766
F         -3.55996        4.98040        7.75795
F         -0.10186        5.59802        7.37570
F         -1.84230        6.56112        6.41088
F         -2.54601        3.88461        5.49522
F         -0.53551        3.27153        6.15010
F         -1.64614        5.69344        3.82496
F         -0.80387        3.68313        3.51083
F          0.68064        6.58547        4.88998
F          0.73116        5.84036        2.81788
F          1.97117        4.37818        5.78725
F          3.00051        5.53301        4.20301
C          1.80733       -0.36329        0.19031
O          1.94719        0.49177       -0.71778
O          0.99266       -1.28338        0.36546
F          2.90956       -1.34306        2.21750
H          6.30287       -0.43198        1.17405
H          5.27473       -1.01618        2.30374
H          4.31756       -1.19495        0.02713
H          4.40219        0.57504       -0.02039
H          3.11084        2.35504        0.50622
H          2.72028        4.41963        1.81800
H          1.76101        2.02128        5.27850
H          2.19976       -0.03025        3.96211
