46

C          2.02414        1.71374       -1.27920
C          2.38059        0.38133       -0.63876
Sb         2.69027        0.52852        1.60097
C          2.84700        0.53887        3.88177
C          3.66247        1.62438        4.58322
C          3.03009        3.02082        4.52941
C          3.94650        4.10602        5.08568
N          3.30091        5.43342        5.02538
C          5.00753        0.48330        1.52331
C          5.67734        0.64936        0.16507
C          7.19763        0.88512        0.24101
C          7.88013        0.99930       -1.12350
N          9.30946        1.25548       -0.96478
C         10.17196        1.33990       -2.03858
N          9.88534        1.33655       -3.29818
N         11.52210        1.43553       -1.64531
H          1.75725        1.62931       -2.34923
H          2.85644        2.43164       -1.20407
H          1.16695        2.17841       -0.76342
H          3.27394       -0.07260       -1.09264
H          1.55447       -0.34265       -0.70668
H          2.82789        2.35420        1.45965
H          2.64364       -1.29344        1.67840
H          0.87939        0.64899        1.74789
H          3.26576       -0.45865        4.08866
H          1.79854        0.54123        4.22353
H          4.66940        1.68040        4.13302
H          3.83625        1.36062        5.64772
H          2.07667        3.02767        5.08414
H          2.78907        3.25443        3.47793
H          4.90867        4.06697        4.53507
H          4.18036        3.89455        6.14405
H          3.00651        5.60893        4.06186
H          3.97885        6.16400        5.25023
H          5.31907       -0.45721        2.00984
H          5.29501        1.32106        2.18046
H          5.22551        1.50237       -0.37441
H          5.48958       -0.24021       -0.46181
H          7.66186        0.05640        0.80675
H          7.39196        1.80490        0.81844
H          7.43549        1.82894       -1.69797
H          7.70762        0.07286       -1.70518
H          9.71558        0.88159       -0.11151
H          8.89259        1.13528       -3.44365
H         11.67814        2.09393       -0.88482
H         12.09896        1.65989       -2.45248
