24

C          5.58865        0.45072       -1.52993
S          4.56802       -0.99343       -1.11805
C          5.19948       -1.40836        0.54805
C          4.83354       -0.38099        1.62205
C          5.39838       -0.53592        3.03715
C          5.08046        0.81045        3.88407
O          5.26642        1.87863        3.26916
O          4.64853        0.58079        5.04098
C          4.90055       -1.71619        3.84066
O          5.17518       -3.00121        3.14141
C          4.92983       -4.10616        3.83146
F          3.62344       -4.22612        4.25006
F          5.19135       -5.18226        3.04577
F          5.68717       -4.24285        4.96544
I          7.62849       -0.66875        2.94727
H          5.30520        0.75419       -2.54609
H          6.65640        0.19279       -1.51799
H          5.40599        1.28853       -0.84552
H          6.29075       -1.53418        0.48412
H          4.77141       -2.39724        0.75772
H          3.73393       -0.35772        1.73398
H          5.12510        0.63314        1.31315
H          3.81042       -1.63192        3.95342
H          5.36249       -1.73911        4.83126
