60

C          2.48520       -0.70372        4.59823
C          2.18730       -0.15835        3.19038
Al         2.97573       -1.14334        1.63592
S          2.03280       -3.43351        1.69088
O          2.75078       -4.38867        0.81686
O          1.66305       -3.90092        3.04523
C          0.29671       -3.31870        0.82606
F         -0.44408       -2.30660        1.35563
F          0.39876       -3.09472       -0.50604
F         -0.39843       -4.46995        0.99710
C          4.95436       -1.48653        1.72747
C          5.78165       -0.62869        2.48376
C          7.17076       -0.78057        2.53132
C          7.81601       -1.81362        1.82296
C          6.99979       -2.67591        1.06404
C          5.61148       -2.51426        1.01711
Si         9.66925       -2.06904        1.98376
C         10.01680       -2.83452        3.69263
C         11.48591       -3.06466        4.07449
C         11.66038       -3.70991        5.45530
C         13.12011       -3.91707        5.86857
C         13.27674       -4.58136        7.23998
C         14.73229       -4.77309        7.67413
C         14.88260       -5.45158        9.03935
C         16.34065       -5.62980        9.46921
C         10.31369       -3.22741        0.63034
C         10.58365       -0.41328        1.84258
H          2.02170       -0.09952        5.39905
H          3.56745       -0.73168        4.80223
H          2.11809       -1.73455        4.70646
H          2.52508        0.89340        3.11304
H          1.09567       -0.11407        3.02923
H          2.44883       -0.67985        0.17681
H          5.33160        0.18754        3.05943
H          7.75862       -0.08182        3.13714
H          7.45393       -3.49517        0.49766
H          5.02089       -3.21932        0.42587
H          9.46342       -3.78913        3.73523
H          9.53241       -2.18684        4.44440
H         12.03256       -2.10528        4.05780
H         11.97759       -3.70343        3.31940
H         11.13443       -4.68082        5.46657
H         11.15221       -3.08462        6.21048
H         13.64019       -2.94239        5.87340
H         13.63361       -4.52989        5.10619
H         12.76776       -5.56134        7.22813
H         12.74812       -3.97702        7.99834
H         15.23870       -3.79159        7.69860
H         15.26615       -5.36889        6.91229
H         14.38260       -6.43461        9.01158
H         14.34337       -4.86012        9.79872
H         16.89597       -6.24352        8.74372
H         16.41833       -6.12064       10.44991
H         16.85471       -4.65918        9.54040
H          9.84474       -4.21996        0.68919
H         11.40165       -3.36593        0.71413
H         10.10359       -2.81805       -0.36820
H         10.22636        0.30739        2.59226
H         10.41831        0.03273        0.85118
H         11.66799       -0.53536        1.98289
