38

N          1.20054        0.03722        0.40268
C          2.57408       -0.40976        0.73392
Ga         3.32510       -1.70272       -0.64720
C          1.97345       -3.25187       -0.75396
C          1.90504       -4.21304        0.26743
C          1.00600       -5.29127        0.22470
C          0.13020       -5.44137       -0.85023
C          0.17253       -4.49285       -1.87923
C          1.08032       -3.42625       -1.83034
C         -0.77368       -4.66960       -3.03208
F         -0.53593       -5.82970       -3.73007
F         -2.08324       -4.75443       -2.62420
F         -0.71949       -3.66094       -3.93922
C          1.02192       -6.30915        1.32802
F          2.11761       -7.13205        1.26217
F          1.05958       -5.73813        2.56868
F         -0.06843       -7.13405        1.31730
C          5.09045       -2.51357       -0.03736
C          5.64505       -3.56678       -0.99989
C          6.96554       -4.22483       -0.56655
C          7.51196       -5.23866       -1.57804
H          0.71137        0.39510        1.22709
H          0.64854       -0.75626        0.07284
H          2.64592       -0.90010        1.72763
H          3.23173        0.47598        0.77361
H          3.41976       -1.08508       -2.12991
H          2.57417       -4.12880        1.12899
H         -0.57049       -6.27443       -0.88440
H          1.09717       -2.71125       -2.65631
H          4.95679       -2.95543        0.96756
H          5.82258       -1.69558        0.08755
H          5.78798       -3.11268       -1.99807
H          4.89487       -4.36504       -1.15195
H          6.81347       -4.72029        0.40813
H          7.71815       -3.43702       -0.38756
H          6.78202       -6.04082       -1.76762
H          8.44343       -5.71201       -1.23080
H          7.72353       -4.75789       -2.54581
