62

C          9.98692        3.56143       -4.34463
C          9.12248        2.82219       -3.32078
C          9.63896        2.95620       -1.88480
C          8.79831        2.19937       -0.85278
C          9.32152        2.32700        0.58132
C          8.53303        1.49799        1.59958
C          9.07386        1.59610        3.03187
C          8.35598        0.66486        4.02066
Si         9.01072        0.63134        5.81015
C          8.59760        2.21807        6.74483
C          7.62178        2.23610        7.75530
C          7.33577        3.41122        8.46532
C          8.01728        4.61792        8.19911
C          8.99338        4.59941        7.17904
C          9.27299        3.43306        6.47240
Ta         7.27352        6.12869        9.51615
S          7.55016        6.60182       12.06542
O          8.84697        6.94664       12.67301
O          6.40429        7.48362       12.39529
C          7.14352        4.93628       12.99113
F          7.70413        3.88956       12.31434
F          7.65560        4.93580       14.24133
F          5.81762        4.69101       13.09357
C          7.85878        8.27267        9.59806
C          8.64406        8.76363        8.41342
O          9.70803        9.35180        8.47784
O          8.09339        8.51244        7.18297
C          8.21064       -0.85055        6.67408
C         10.88860        0.38694        5.77831
H          9.59730        3.44441       -5.36585
H         11.02073        3.18401       -4.33680
H         10.02907        4.63884       -4.12474
H          9.06817        1.75273       -3.58718
H          8.08689        3.19908       -3.37032
H          9.68045        4.02535       -1.61171
H         10.68162        2.59360       -1.84023
H          8.76087        1.13085       -1.13081
H          7.75515        2.55898       -0.89529
H          9.31124        3.38895        0.88234
H         10.38111        2.01576        0.60797
H          8.54212        0.43850        1.28581
H          7.47298        1.80709        1.58874
H          8.99818        2.64116        3.37631
H         10.15195        1.35918        3.01656
H          8.40863       -0.37364        3.64425
H          7.28107        0.91402        4.05846
H          7.07842        1.32225        8.01021
H          6.57276        3.36726        9.25393
H          9.54982        5.51152        6.94752
H         10.04817        3.46149        5.70018
H          8.97302        6.00956        9.93089
H          6.47775        6.85941        8.03600
H          5.96617        5.41148       10.49630
H          8.40051        8.56930       10.50316
H          6.86171        8.75390        9.60590
H          7.31987        7.90522        7.34764
H          7.11334       -0.78207        6.66872
H          8.53728       -0.93147        7.72037
H          8.48659       -1.78378        6.16127
H         11.40467        1.24423        5.32374
H         11.16128       -0.51177        5.20496
H         11.27933        0.27148        6.79907
