27

S          3.57381       -1.89620        0.73733
C          5.31517       -1.36837        0.42879
C          5.66644       -0.15660        1.30249
C          4.81844        1.09017        1.04065
In         5.56147        2.89080        2.12011
C          4.22722        2.96005        4.04534
C          4.76636        3.25815        5.46603
C          5.37655        4.68864        5.65603
C          6.18124        4.91554        6.98790
F          5.44094        4.62068        8.07772
F          7.31054        4.18888        7.02729
F          6.52906        6.22533        7.07008
F          6.23071        4.97331        4.63898
F          4.37586        5.61659        5.65487
F          3.78279        3.12751        6.43084
F          5.73567        2.34048        5.76549
F          3.17063        3.86797        3.84721
F          3.60003        1.71332        4.19279
F          7.43591        2.34263        2.76077
H          3.67304       -3.09985        0.12488
H          5.41453       -1.11355       -0.63688
H          5.97100       -2.22216        0.65453
H          6.73360        0.06319        1.13139
H          5.59370       -0.45127        2.36202
H          3.77607        0.92629        1.35607
H          4.79576        1.31683       -0.03845
H          5.66522        4.48874        1.39307
