35

C          0.80822       -0.11440        0.17069
C          2.33902       -0.07731        0.19206
C          2.92503        1.27236       -0.23401
C          4.45591        1.33005       -0.19124
C          5.04243        2.68977       -0.60099
C          6.56645        2.79835       -0.50127
Ga         7.24008        4.60445       -1.15712
C          9.00355        5.26943       -0.37248
C         10.07705        4.22127       -0.06198
C         10.48457        3.40890       -1.28799
N         11.56341        2.44984       -0.95980
S          7.44093        4.25791       -3.51267
H          0.41615       -1.09337        0.48515
H          0.42095        0.09234       -0.83879
H          0.38551        0.64675        0.84461
H          2.73639       -0.86853       -0.46666
H          2.69863       -0.32177        1.20655
H          2.51506        2.06608        0.41688
H          2.57845        1.51407       -1.25493
H          4.87113        0.54548       -0.84963
H          4.80056        1.08080        0.82929
H          4.57826        3.47669        0.02146
H          4.72691        2.91490       -1.63581
H          7.03877        2.00573       -1.10797
H          6.88951        2.62602        0.54165
H          6.11879        5.75087       -0.96877
H          8.74019        5.81652        0.54982
H          9.40437        6.02542       -1.07055
H          9.71882        3.51977        0.71115
H         10.99533        4.68838        0.35843
H         10.74992        4.10424       -2.10808
H          9.61856        2.83489       -1.64992
H         12.39299        2.97254       -0.66764
H         11.83553        1.94186       -1.80360
H          7.22413        5.55247       -3.83808
