39

C          2.22156       -1.88358        0.50782
C          3.36874       -0.94733        0.11117
C          3.59782       -0.85865       -1.40868
C          4.77241        0.00479       -1.83268
Sb         5.02738        0.21984       -4.10623
C          4.33255        2.40356       -3.91320
C          3.95470        3.06790       -5.22523
C          3.60086        4.55333       -5.10082
N          3.18096        5.12510       -6.40117
C          7.18795        0.92652       -3.74947
C          8.24476       -0.12226       -4.04847
C          9.68956        0.31000       -3.74236
H          2.06735       -1.91349        1.59800
H          2.42026       -2.91267        0.17003
H          1.27424       -1.56649        0.04455
H          4.30197       -1.28010        0.59804
H          3.17181        0.06631        0.50235
H          2.67004       -0.48683       -1.88308
H          3.73612       -1.88255       -1.80451
H          5.72642       -0.41327       -1.47000
H          4.67911        1.03133       -1.43861
H          5.59154       -1.50304       -4.20449
H          5.26398        0.43621       -5.89406
H          3.30841       -0.29794       -4.36491
H          5.15909        2.93844       -3.41446
H          3.47635        2.37289       -3.21928
H          3.09964        2.54174       -5.68434
H          4.78914        2.96742       -5.94721
H          4.46692        5.08347       -4.65382
H          2.76105        4.67217       -4.39544
H          3.90564        4.92674       -7.09527
H          3.12388        6.14365       -6.33731
H          7.23328        1.25162       -2.69564
H          7.31442        1.81759       -4.38755
H          8.17644       -0.41393       -5.11201
H          8.02155       -1.04401       -3.48146
H          9.95901        1.21725       -4.30651
H         10.42341       -0.47508       -3.99667
H          9.80996        0.54689       -2.67303
