26

O          4.19806       -0.41903       -1.90062
C          4.97550        0.59393       -1.41880
O          5.17479        1.58070       -2.09360
C          5.55783        0.38229       -0.01984
C          4.98816       -0.78364        0.79061
In         5.79525       -0.89744        2.83476
S          4.32069       -2.91268        3.70562
O          2.94884       -2.35948        3.70516
O          4.53542       -4.23387        3.09317
C          4.65854       -3.23168        5.57819
F          5.92699       -3.65647        5.76830
F          4.49092       -2.09090        6.29168
F          3.81504       -4.16469        6.06776
S          8.30202       -1.68555        2.37015
O          8.84876       -2.85993        3.06672
O          8.52113       -1.56513        0.91303
C          9.36301       -0.22632        3.06678
F          8.89179        0.95890        2.59331
F          9.30470       -0.17911        4.41807
F         10.65577       -0.34127        2.70104
H          4.14347       -1.09860       -1.19668
H          5.43659        1.34735        0.49484
H          6.64411        0.25634       -0.16074
H          5.23669       -1.75889        0.34380
H          3.89718       -0.71578        0.91916
H          5.87822        0.29399        4.09359
