56

C         14.03309        6.32811        4.27507
C         12.50830        6.43569        4.19468
C         11.81157        5.08051        4.03578
C         10.28544        5.17079        3.94904
C          9.58896        3.81433        3.80377
C          8.04679        3.91550        3.72488
C          7.29735        2.60773        3.67244
C          7.00226        1.90066        4.83603
C          7.38981        2.35390        6.16395
C          7.05710        1.67764        7.31425
C          6.32022        0.46001        7.28378
C          5.94667       -0.02935        6.00169
C          6.27396        0.64069        4.84488
C          5.96962       -0.24273        8.51730
C          4.86543        0.38576        9.44918
C          3.41752        0.63206        8.87694
C          2.48496       -0.57007        8.43600
C          2.14530       -1.69205        9.48812
C          0.89803       -2.57796        9.10418
F          0.99814       -3.05970        7.85120
F          0.83880       -3.62643        9.95691
F         -0.25548       -1.89307        9.21514
F          3.19602       -2.53419        9.61659
F          1.86196       -1.14199       10.69938
F          1.29121        0.01151        8.08578
F          2.99259       -1.16291        7.33241
F          2.72500        1.30518        9.85193
F          3.48955        1.44337        7.79403
F          4.69043       -0.36324       10.59830
F          5.29471        1.62129        9.84804
F          5.54476       -1.54590        8.29101
F          7.06603       -0.33959        9.41928
C          6.86599        2.10512        2.31726
C          7.80904        1.07332        1.65653
H         14.50823        7.31353        4.38913
H         14.44560        5.86106        3.36775
H         14.34105        5.70829        5.13077
H         12.22842        7.08825        3.34981
H         12.12532        6.93487        5.10111
H         12.08866        4.42922        4.88388
H         12.19983        4.57749        3.13177
H         10.00703        5.81954        3.09773
H          9.89991        5.67942        4.85152
H          9.85688        3.16811        4.65628
H          9.96537        3.30008        2.90280
H          7.79521        4.51788        2.83023
H          7.71277        4.52218        4.59023
H          7.97744        3.26803        6.26350
H          7.39017        2.07462        8.27561
H          5.39939       -0.97103        5.92992
H          5.97349        0.19428        3.89558
H          6.76328        2.96425        1.62769
H          5.85805        1.65165        2.37376
H          8.80688        1.50419        1.48486
H          7.41807        0.72388        0.68406
H          7.93900        0.19704        2.30783
