38

N          1.69280        0.00146        0.73444
C          3.11214        0.00628        0.32178
Ta         3.03462        0.59222        2.47224
C          1.40758        0.18654        3.89872
C          0.22468       -0.74694        3.67217
C         -0.68708       -0.93942        4.88823
N         -1.84123       -1.81094        4.57019
C          5.14032       -0.07722        2.78732
C          5.46950       -0.47343        4.23028
C          6.96932       -0.78680        4.42286
C          7.40130       -1.39317        5.74080
C          7.15351       -0.55017        7.03254
F          5.84180       -0.44413        7.31850
F          7.76104       -1.11755        8.10605
F          7.65991        0.69917        6.89012
F          6.79997       -2.61416        5.96228
F          8.77050       -1.63621        5.72164
H          1.26052       -0.91630        0.77011
H          1.09755        0.68352        0.27538
H          3.30675        0.74516       -0.46433
H          3.45083       -0.99077        0.02036
H          3.61903        1.88739        3.67157
H          2.59542        2.11999        1.53138
H          2.88764       -1.24975        2.44579
H          1.05285        1.20531        4.16985
H          2.00469       -0.15285        4.77563
H          0.58880       -1.73473        3.34347
H         -0.39450       -0.35474        2.84078
H         -0.98592        0.05790        5.27185
H         -0.11294       -1.42665        5.69443
H         -2.35937       -1.39965        3.78987
H         -2.49270       -1.83669        5.35700
H          5.73266        0.81936        2.50360
H          5.43527       -0.89123        2.10569
H          4.88244       -1.36299        4.51179
H          5.17043        0.33525        4.91570
H          7.56872        0.12321        4.26758
H          7.29116       -1.51477        3.66071
