30

N          4.27874       -0.72106       -2.55827
C          4.12951       -0.45170       -1.11506
C          4.64058        0.94567       -0.77015
C          4.48231        1.23945        0.72596
C          5.24040        2.42251        1.34453
C          4.88455        3.81947        0.78264
C          3.36635        4.30413        0.73769
C          2.34555        4.36765        1.94194
C          2.61021        5.43985        3.09897
F          3.83958        5.95706        3.08819
F          1.74874        6.49019        2.93282
F          2.34265        4.90612        4.29866
F          1.15856        4.75488        1.34521
F          2.10567        3.14462        2.45066
F          3.39362        5.58169        0.23432
F          2.73148        3.51719       -0.19154
F          5.61756        4.80048        1.37062
F          5.21806        3.88624       -0.57388
C          5.07803        2.34067        2.94663
O          4.54653        3.35764        3.45463
O          5.46348        1.27371        3.45471
Cl         7.02882        2.22057        0.97370
H          4.03698       -1.69242       -2.76078
H          5.26216       -0.61425       -2.81700
H          4.65494       -1.18866       -0.47505
H          3.05664       -0.52910       -0.87078
H          4.11309        1.68510       -1.38777
H          5.70871        1.00980       -1.03611
H          4.83329        0.38096        1.31975
H          3.41571        1.36280        0.97596
