40

N          0.97258        0.88150        0.74674
C          2.29455        0.28437        0.39879
C          3.42902        0.93619        1.16626
Ta         5.54109        0.51929        0.88308
C          6.66602       -0.60068       -0.70056
C          7.93047       -1.12143       -0.33498
C          8.75412       -1.81042       -1.22793
C          8.33183       -2.04713       -2.54145
C          7.08952       -1.56381       -2.94085
C          6.28455       -0.83186       -2.05060
C          5.01493       -0.29092       -2.63582
O          4.41977       -0.80146       -3.57331
O          4.54446        0.85816       -2.09014
C          6.32134        1.84584        2.45578
C          7.81315        2.05952        2.74621
C          8.58637        2.49862        1.49236
C          8.04589        3.06394        3.89104
H          0.26200        0.52078        0.10351
H          1.01928        1.88728        0.56134
H          2.50446        0.34084       -0.68326
H          2.25413       -0.78279        0.66290
H          3.26354        0.83443        2.25850
H          3.43867        2.03669        0.96402
H          4.92211       -1.15625        0.92368
H          6.04127        1.76023       -0.42520
H          6.47615       -0.54990        1.95674
H          8.26980       -1.00042        0.69685
H          9.72551       -2.18222       -0.88967
H          8.96370       -2.59741       -3.24162
H          6.71735       -1.72686       -3.95411
H          5.23287        1.25994       -1.44391
H          5.80503        1.55081        3.39080
H          5.87031        2.82381        2.15708
H          8.22228        1.08419        3.06636
H          8.16439        3.43050        1.08221
H          8.53513        1.74384        0.69585
H          9.64904        2.68139        1.71863
H          7.66266        4.06100        3.61705
H          9.11704        3.17259        4.13169
H          7.52209        2.75015        4.80616
