19

O          1.14030        0.33358        0.08090
Al         2.93523        0.41699       -0.21481
C          3.74391        0.44738        1.65120
C          4.89327        1.26906        1.71346
C          5.67051        1.42086        2.86366
C          5.31322        0.73777        4.03003
C          4.19391       -0.08899        4.01258
C          3.41229       -0.23846        2.84968
C          2.24705       -1.19790        3.02461
O          2.22719       -1.99623        3.95941
O          1.21779       -1.16528        2.17585
H          0.65375       -0.21418       -0.54833
H          3.37637       -0.89877       -1.08538
H          3.36597        1.80923       -0.95573
H          5.18319        1.82448        0.81450
H          6.54800        2.07384        2.85300
H          5.90177        0.84731        4.94403
H          3.89576       -0.65090        4.89878
H          1.26172       -0.49039        1.40017
