21

C          1.39808       -1.08670        0.13248
C          2.73369       -0.35610       -0.00831
C          2.59762        1.02082       -0.69851
N          1.76253        1.89364        0.11287
S          0.52218        2.56891       -0.56456
O         -0.10547        1.79139       -1.66110
O         -0.38538        3.08949        0.46946
C          1.09408        4.08662       -1.42473
C          3.99150        1.64418       -0.91167
H          1.51073       -2.04328        0.66703
H          0.95339       -1.29176       -0.85327
H          0.68666       -0.45379        0.68027
H          3.45256       -0.97805       -0.57364
H          3.17127       -0.18828        0.99224
H          2.14461        0.83590       -1.69572
H          1.79832        3.80024       -2.21746
H          1.58877        4.73308       -0.68964
H          0.22412        4.59384       -1.86261
H          4.46210        1.84717        0.06329
H          3.90705        2.60274       -1.44291
H          4.65788        0.98273       -1.49269
