32

C          1.53140        0.88523        0.49971
C          2.17539        0.09233       -0.65744
C          2.95735       -1.13338       -0.24433
S          2.06977       -2.60524       -0.17677
O          0.74880       -2.40200       -0.78988
O          2.85337       -3.77189       -0.60942
C          1.72724       -2.93443        1.58101
C          4.28981       -1.05126        0.24598
C          4.94771        0.21946        0.35921
C          6.24262        0.34443        0.85121
C          6.98954       -0.76183        1.27649
C          6.36911       -2.01749        1.16311
C          5.08342       -2.17398        0.66455
C          7.16634       -3.23205        1.54395
F          8.09968       -3.56798        0.59162
F          7.88172       -3.04536        2.70105
F          6.41098       -4.34567        1.73870
C          6.83808        1.71248        1.01193
F          6.28247        2.65019        0.19087
F          6.69075        2.20305        2.28989
F          8.18475        1.73732        0.76642
H          1.05387        1.81150        0.13955
H          2.27220        1.16090        1.26455
H          0.75577        0.27917        0.98984
H          2.83905        0.76164       -1.23307
H          1.38410       -0.21534       -1.35384
H          1.07342       -2.14161        1.96122
H          2.67634       -2.94935        2.13148
H          1.23455       -3.91331        1.64596
H          4.42350        1.12352        0.05808
H          7.99757       -0.65539        1.66929
H          4.67692       -3.17665        0.55327
