25

N          1.01039        0.01852        0.01032
C          2.49192       -0.03075       -0.04652
C          3.01752        0.36918       -1.42347
C          4.54305        0.33957       -1.56913
B          5.07149        0.67001       -3.08735
C          6.71086        0.64422       -3.22906
C          7.11506        0.96544       -4.66201
C          8.58330        0.99141       -5.03093
O          9.54549        0.86571       -4.30925
O          8.81425        1.19886       -6.39379
H          0.67190       -0.46373        0.84559
H          0.64121       -0.50768       -0.78559
H          2.89784       -1.03133        0.20805
H          2.87951        0.66858        0.71454
H          2.63849        1.37529       -1.67388
H          2.57737       -0.31221       -2.17838
H          4.90631       -0.65909       -1.24632
H          4.97754        1.05734       -0.84170
H          4.59012       -0.16628       -3.88709
H          4.66193        1.79869       -3.44272
H          7.13278       -0.34137       -2.95480
H          7.19298        1.37525       -2.55317
H          6.69721        1.95306       -4.94344
H          6.61378        0.25383       -5.34862
H          7.94030        1.26559       -6.81739
