35

N          1.11742       -0.19986        0.59172
C          2.46793       -0.06069        0.00915
C          3.19196       -1.40385       -0.04666
C          4.59871       -1.30863       -0.65649
C          5.38422       -2.62866       -0.69679
Al         7.17663       -2.45861       -1.59764
C          8.37733       -1.12492       -0.49445
C          8.56859       -1.19162        1.04429
C          9.13133       -2.53382        1.61464
F         10.28525       -2.89506        1.02556
F          9.36866       -2.40667        2.94797
F          8.24008       -3.53785        1.46182
F          9.41160       -0.20105        1.50137
F          7.35671       -0.99692        1.66020
F          9.67671       -1.06043       -1.01780
F          7.84897        0.17149       -0.68461
C          8.07270       -4.28531       -1.71463
O          9.45164       -4.14815       -2.26012
C         10.13160       -5.25981       -2.46643
F         10.32806       -6.03008       -1.34002
F          9.55800       -6.11768       -3.38508
F         11.36460       -4.94783       -2.94584
H          0.68220        0.71891        0.69382
H          1.19935       -0.57734        1.53839
H          3.10647        0.66500        0.55279
H          2.34888        0.33319       -1.01422
H          2.57851       -2.12151       -0.61746
H          3.27283       -1.81432        0.97763
H          5.17338       -0.55377       -0.09249
H          4.51077       -0.90016       -1.67985
H          4.79070       -3.39233       -1.23525
H          5.50621       -3.01863        0.33025
H          7.10915       -1.75303       -3.06061
H          7.51258       -4.93714       -2.40672
H          8.15375       -4.81785       -0.75502
