51

C          1.53471        3.02231       -4.71501
C          2.92400        2.41380       -4.92755
C          3.31995        1.38167       -3.86426
C          4.75399        0.84770       -4.02634
C          5.17663       -0.22067       -3.01202
In         7.33525       -0.82378       -3.18394
C          8.24540       -0.31787       -1.05612
C          9.01321        0.98513       -0.71204
C          8.16666        2.30458       -0.75145
C          8.99904        3.64067       -0.78175
F          9.90515        3.69040        0.21591
F          9.64108        3.80573       -1.95294
F          8.15367        4.68998       -0.62549
F          7.37120        2.32821       -1.85582
F          7.37196        2.37309        0.35259
F          9.58607        0.94236        0.54430
F         10.05057        1.12708       -1.60406
F          7.24154       -0.40972       -0.07341
F          9.16956       -1.32225       -0.71602
C          8.23951        0.46737       -4.80760
C          9.76629        0.55861       -4.94307
C         10.50240       -0.77182       -4.73979
C         10.09177       -1.84995       -5.74129
N         10.57996       -3.15248       -5.30201
C         10.36269       -4.30064       -6.03356
N         10.10341       -4.40086       -7.29788
N         10.54265       -5.47938       -5.28613
H          1.27608        3.74031       -5.50823
H          1.47975        3.55515       -3.75331
H          0.75582        2.24438       -4.70291
H          3.67693        3.22054       -4.94390
H          2.97036        1.94093       -5.92372
H          2.60790        0.53692       -3.88981
H          3.21739        1.83289       -2.86069
H          5.44149        1.71076       -3.97474
H          4.86345        0.45467       -5.05365
H          4.53875       -1.11428       -3.11088
H          5.03408        0.15291       -1.98436
H          7.70716       -2.56314       -3.29017
H          7.82306        1.47714       -4.66866
H          7.78845        0.09163       -5.74151
H         10.15619        1.26539       -4.19451
H         10.05932        0.97823       -5.92783
H         10.27149       -1.13483       -3.72244
H         11.59501       -0.62760       -4.78699
H         10.51976       -1.61800       -6.73142
H          8.99289       -1.86582       -5.84693
H         10.56472       -3.26598       -4.29148
H         10.07481       -3.47554       -7.73286
H         10.10136       -5.45704       -4.36869
H         10.22515       -6.27807       -5.82901
