30

C          1.16499       -0.57210        0.08413
C          2.62479       -0.21348        0.38376
C          2.95209        1.26567        0.12477
C          4.39434        1.64581        0.37412
As         4.82925        3.58318       -0.19986
C          4.41136        4.43271        1.62685
C          3.74887        5.81885        1.53441
C          2.22716        5.81534        1.66322
O          1.63155        6.45965        2.53660
N          1.57131        5.06115        0.73934
S          5.12833        2.71977       -2.66002
H          0.95532       -1.63633        0.27310
H          0.91744       -0.36511       -0.96833
H          0.47342        0.01894        0.70458
H          3.29188       -0.83788       -0.23416
H          2.85919       -0.46470        1.43293
H          2.28227        1.89202        0.74300
H          2.70981        1.50632       -0.92683
H          5.09195        1.04072       -0.21883
H          4.67406        1.60247        1.44032
H          3.27794        3.76539       -0.73767
H          6.38106        3.29221        0.10603
H          5.16643        5.00067       -0.79881
H          5.38478        4.50840        2.13270
H          3.79127        3.73257        2.20595
H          4.01940        6.27984        0.56205
H          4.10668        6.49807        2.31946
H          2.09812        4.48412        0.06140
H          0.56691        4.96451        0.82744
H          6.39022        2.26733       -2.46603
