21

N          2.58023        0.32500        0.77031
Ta         4.54798        0.06779        1.16684
C          4.65385        1.68749       -0.42213
O          3.68235        2.88164       -0.20298
C          3.50981        3.70997       -1.19309
F          4.65532        4.34655       -1.64232
F          2.95554        3.15372       -2.34217
F          2.64508        4.71455       -0.82517
C          4.99499       -2.09859        1.31955
N          3.68406       -1.90621        1.96805
H          2.22496        1.14440        0.28081
H          1.81753       -0.20443        1.18575
H          4.98047       -0.12838        2.93556
H          5.74650       -0.22158       -0.17162
H          5.22057        1.54774        1.91833
H          4.33296        1.26373       -1.39139
H          5.63390        2.16104       -0.56742
H          5.75253       -2.55246        1.96860
H          4.87857       -2.68853        0.40038
H          3.68318       -1.98836        2.97854
H          2.89672       -2.40103        1.54676
