40

C          5.35330        1.02346       -2.70798
S          4.80876        0.37670       -1.09765
C          5.43993        1.69831        0.05441
C          5.08163        1.41133        1.49222
In         5.82966        3.00396        2.94040
C          4.33657        3.23186        4.65219
C          2.96562        2.57058        4.50847
S          3.09558        0.75512        4.70780
C          1.35825        0.28637        4.47580
C          7.81822        2.31478        3.80782
C          7.81024        1.59636        5.16570
C          7.18654        0.19228        5.08648
C          7.26829       -0.57560        6.38852
C          6.68331       -2.02210        6.34750
F          5.38001       -2.01658        6.00523
F          7.35286       -2.78453        5.44660
F          6.79322       -2.62952        7.55545
F          8.58009       -0.72871        6.80933
F          6.60675        0.07205        7.40851
H          5.03033        0.31297       -3.48096
H          6.44846        1.11718       -2.75291
H          4.89981        2.00326       -2.91896
H          5.00764        2.64984       -0.29305
H          6.53000        1.74902       -0.09821
H          5.51721        0.45450        1.82076
H          3.99127        1.32401        1.61634
H          6.02472        4.56768        2.08541
H          4.17833        4.31924        4.73922
H          4.79576        2.91547        5.60427
H          2.52632        2.76182        3.51450
H          2.23456        2.91133        5.26770
H          1.30032       -0.80730        4.55405
H          0.99496        0.58596        3.48185
H          0.71388        0.73087        5.24917
H          8.43806        3.22170        3.89606
H          8.32155        1.67747        3.05879
H          7.24664        2.18442        5.90822
H          8.83312        1.48738        5.57302
H          7.70187       -0.40703        4.31907
H          6.12702        0.25156        4.79211
