99

C         11.05989       -0.49608      -14.15818
C         11.67036       -0.33142      -12.76425
C         10.73121       -0.76574      -11.63433
C         11.33778       -0.60791      -10.23661
C         10.38931       -1.00428       -9.10052
C         11.01229       -0.84412       -7.70941
C         10.05462       -1.11918       -6.53689
C          9.57212       -2.57426       -6.41734
Si         8.45338       -2.96369       -4.92265
C          8.04100       -4.79497       -4.90943
C          9.06598       -5.75523       -4.75488
C          8.79004       -7.12206       -4.75580
C          7.47380       -7.61982       -4.90176
C          6.45229       -6.65536       -5.04042
C          6.72788       -5.28249       -5.05113
Nb         7.10604       -9.76317       -4.73974
C          5.00989      -10.07300       -4.18519
C          3.83684       -9.99967       -4.96539
C          2.56637      -10.05219       -4.38916
C          2.39479      -10.20691       -2.99524
C          3.55949      -10.29130       -2.21056
C          4.83259      -10.21655       -2.79228
Si         0.66903      -10.33123       -2.25324
C         -0.21048      -11.89730       -2.88401
C          0.49456      -13.22772       -2.58072
C         -0.25653      -14.45499       -3.11162
C          0.44314      -15.78421       -2.81201
C         -0.32426      -17.00930       -3.31863
C          0.36893      -18.34065       -3.01438
C         -0.41374      -19.56708       -3.49416
C          0.28529      -20.89169       -3.17843
C          0.76376      -10.37481       -0.36229
C         -0.38233       -8.84357       -2.77780
C          8.66566      -11.34781       -5.38759
C          8.28817      -12.66088       -4.80840
O          8.94395      -13.36309       -4.05496
O          7.02845      -13.08730       -5.18576
C          9.37608       -2.50124       -3.33140
C          6.87494       -1.92247       -5.03720
H         11.75487       -0.17411      -14.94673
H         10.13907        0.09759      -14.26158
H         10.79695       -1.54641      -14.35420
H         11.95829        0.72254      -12.60969
H         12.60589       -0.91272      -12.70078
H         10.43786       -1.81890      -11.78871
H          9.79640       -0.18037      -11.69494
H         11.65535        0.44087      -10.09507
H         12.25911       -1.21338      -10.17045
H         10.06237       -2.04670       -9.24755
H          9.47500       -0.38652       -9.16008
H         11.40301        0.18476       -7.61518
H         11.88737       -1.51253       -7.62440
H          9.18518       -0.44410       -6.62839
H         10.56398       -0.82610       -5.60381
H         10.44283       -3.25201       -6.36465
H          9.01831       -2.87758       -7.32148
H         10.10531       -5.42913       -4.63438
H          9.62562       -7.82169       -4.64645
H          5.41018       -6.97474       -5.14463
H          5.89604       -4.58047       -5.16664
H          8.12916      -10.24599       -3.32954
H          7.63539       -9.36925       -6.36299
H          6.41812      -10.75926       -6.05958
H          3.92245       -9.91060       -6.05268
H          1.68795       -9.98510       -5.04109
H          3.47980      -10.41715       -1.12664
H          5.70780      -10.28739       -2.13443
H         -0.33836      -11.78940       -3.97600
H         -1.23309      -11.90734       -2.46406
H          0.62960      -13.33987       -1.49060
H          1.51077      -13.21063       -3.00836
H         -0.39139      -14.35065       -4.20287
H         -1.27439      -14.47172       -2.68120
H          0.59557      -15.87728       -1.72200
H          1.45251      -15.77306       -3.25775
H         -0.47586      -16.91906       -4.40892
H         -1.33515      -17.01562       -2.87254
H          0.53869      -18.42272       -1.92599
H          1.37156      -18.34449       -3.47643
H         -0.58034      -19.48795       -4.58194
H         -1.41646      -19.55957       -3.03332
H          1.27508      -20.94146       -3.65629
H         -0.29889      -21.75418       -3.53007
H          0.43779      -21.01101       -2.09506
H          1.32242      -11.24858        0.00135
H         -0.24612      -10.41859        0.07176
H          1.25901       -9.47526        0.03019
H         -0.44031       -8.76716       -3.87319
H          0.04854       -7.90430       -2.40316
H         -1.40948       -8.92702       -2.39178
H          9.65672      -11.05011       -5.02252
H          8.65330      -11.40277       -6.48142
H          6.62051      -12.31340       -5.66231
H         10.29103       -3.10075       -3.21870
H          8.74473       -2.69720       -2.45309
H          9.66277       -1.43935       -3.31346
H          6.32028       -2.13228       -5.96305
H          7.11126       -0.84844       -5.02409
H          6.20343       -2.12620       -4.19097
