73

C          2.08260       -1.14876       -2.86452
C          2.06305       -0.52567       -1.46609
C          2.92607        0.74152       -1.30552
B          2.39950        2.05437       -2.20851
C          3.52804        3.22933       -2.15752
C          4.78532        2.98644       -2.75987
C          5.81616        3.92451       -2.77355
C          5.66223        5.19346       -2.17250
C          4.41355        5.45404       -1.57081
C          3.38531        4.50562       -1.57157
Si         7.01567        6.48075       -2.22022
C          6.64939        7.80870       -3.54930
C          5.29442        8.50498       -3.38427
C          5.02539        9.57893       -4.41453
F          5.03341        9.10113       -5.69132
F          3.80762       10.16952       -4.22554
F          5.95070       10.58772       -4.37322
C          7.17517        7.36053       -0.54833
C          8.68630        5.71677       -2.67754
C          0.89181        2.51726       -1.81458
C          0.51211        3.07796       -0.56984
C         -0.80343        3.42065       -0.25897
C         -1.82449        3.21363       -1.20094
C         -1.49346        2.66192       -2.44797
C         -0.16885        2.32851       -2.73006
C         -3.23836        3.56707       -0.86269
C         -3.62607        5.09616       -0.85562
C         -3.48276        5.95158       -2.17224
C         -4.38749        5.67185       -3.44442
C         -5.95365        5.70002       -3.27636
C         -6.74435        5.87433       -4.62969
F         -6.33237        4.99014       -5.55656
F         -8.05587        5.65868       -4.38804
F         -6.61226        7.11839       -5.12315
F         -6.36796        4.53513       -2.72382
F         -6.32758        6.73153       -2.47464
F         -4.05984        6.65653       -4.33570
F         -4.04058        4.48315       -3.99113
F         -3.72164        7.24843       -1.81172
F         -2.20373        5.86913       -2.61226
F         -4.92305        5.23076       -0.43616
F         -2.83469        5.72174        0.06253
F         -4.14369        2.95061       -1.70070
F         -3.55771        3.15747        0.42438
C          3.11051        1.03650        0.19134
H          1.46331       -2.05859       -2.91042
H          3.10880       -1.42737       -3.15481
H          1.71443       -0.44059       -3.61858
H          2.39881       -1.29111       -0.73744
H          1.01958       -0.29109       -1.18789
H          3.92954        0.49776       -1.70932
H          2.36457        1.69209       -3.39232
H          4.94717        2.02118       -3.25015
H          6.76044        3.66474       -3.26302
H          4.23270        6.41818       -1.08188
H          2.43409        4.77695       -1.10594
H          6.69195        7.31694       -4.53398
H          7.46176        8.55403       -3.53093
H          5.20865        8.99800       -2.40379
H          4.46882        7.78104       -3.45323
H          6.22484        7.81486       -0.23296
H          7.93408        8.15649       -0.58408
H          7.46643        6.64412        0.23300
H          8.65331        5.24440       -3.66965
H          8.98155        4.94702       -1.95065
H          9.47369        6.48455       -2.69884
H          1.27340        3.24664        0.19453
H         -1.04395        3.83570        0.72125
H         -2.27380        2.48688       -3.18973
H          0.06839        1.89822       -3.70656
H          2.14070        1.19826        0.68957
H          3.72278        1.93574        0.35820
H          3.59826        0.19525        0.71778
