19

C          0.86051       -0.11848        0.10302
C          2.37964        0.04316       -0.01045
C          3.03201        0.29243        1.35532
C          4.56243        0.36473        1.41409
S          5.22364        1.87817        0.69291
O          4.41145        3.04658        0.94057
O          6.66270        1.93365        0.76618
F          4.95130        1.54871       -0.93347
C          5.03842        0.23150        2.95643
O          5.30591        1.29681        3.54494
O          5.00391       -0.96164        3.33084
H          0.39706       -0.30727       -0.87692
H          0.39788        0.78931        0.52010
H          0.59435       -0.95569        0.76698
H          2.61122        0.86726       -0.70031
H          2.81784       -0.86395       -0.46007
H          2.77569       -0.53747        2.03392
H          2.62263        1.20888        1.80927
H          5.04040       -0.43388        0.82805
