32

S          0.91339        0.47231        0.77729
C          2.48392       -0.03057       -0.03713
C          3.33731       -0.81797        0.95280
C          4.64584       -1.32343        0.29435
C          5.56143       -2.11591        1.20438
C          5.22303       -3.44246        1.60742
C          4.69918       -4.45960        0.53847
C          5.65977       -4.74385       -0.67369
F          6.91390       -5.02019       -0.27276
F          5.20359       -5.82781       -1.36577
F          5.70602       -3.71801       -1.54761
F          4.49284       -5.68146        1.12410
F          3.50364       -4.06877       -0.00955
F          6.21790       -4.11783        2.28771
F          4.06312       -3.54907        2.60907
C          6.55959       -1.36138        1.96785
C          8.06151       -1.39283        1.46550
C          8.34035       -0.89848        0.00372
F          7.91924        0.37139       -0.19556
F          9.68383       -0.91559       -0.22190
F          7.76940       -1.68111       -0.92855
F          8.86924       -0.61495        2.27208
F          8.54391       -2.66795        1.53240
F          6.26710        0.01885        1.98739
F          6.69034       -1.73440        3.31089
H          0.38219        1.15803       -0.26466
H          3.01178        0.87232       -0.37706
H          2.24327       -0.64816       -0.91475
H          2.77261       -1.67915        1.33885
H          3.58723       -0.18809        1.81958
H          5.19255       -0.44987       -0.09403
H          4.37059       -1.90581       -0.59802
