18

N          1.13747       -0.05429       -0.11371
C          2.61719        0.03074        0.09956
C          3.13086       -0.95581        1.13047
Ga         5.15211       -0.73961        1.42456
C          6.07008       -2.35426        2.27809
N          7.49731       -2.37961        1.86226
H          0.81759        0.76443       -0.64189
H          0.68920        0.01677        0.80399
H          2.92703        1.05514        0.39032
H          3.09176       -0.16894       -0.87636
H          2.89046       -1.98702        0.82143
H          2.62949       -0.77672        2.10030
H          5.87615       -0.63524       -0.04179
H          5.39393        0.63075        2.25113
H          5.51818       -3.26709        1.97286
H          6.02057       -2.30246        3.37982
H          7.56389       -1.99908        0.91384
H          7.86303       -3.33409        1.81502
