22

N          1.60321        1.10836        0.31883
Al         3.01681        0.04074       -0.22772
C          3.92433       -1.03187        1.23813
C          2.97234       -1.86484        2.09964
C          3.69588       -2.64743        3.21593
C          2.78517       -3.45961        4.11018
C          3.51034       -4.26885        5.22836
F          4.38533       -5.15588        4.69479
F          4.20619       -3.44450        6.04993
F          2.63616       -4.96489        5.99295
F          1.87064       -2.65905        4.76649
F          2.05792       -4.38686        3.39345
Cl         2.14358       -1.51160       -1.59531
H          1.78652        2.00002        0.77444
H          0.77248        0.70215        0.74431
H          4.11925        0.95510       -1.01134
H          4.48077       -0.32165        1.88114
H          4.68707       -1.68937        0.78006
H          2.42131       -2.57688        1.46509
H          2.21566       -1.20894        2.56088
H          4.25643       -1.95137        3.85945
H          4.42966       -3.33804        2.77188
