27

C          0.94982       -0.17930       -0.00175
C          2.47874       -0.08787       -0.00286
C          3.03181        0.89077       -1.04402
C          4.55961        0.99903       -1.05221
C          5.09890        1.97566       -2.10055
C          6.62735        2.05768       -2.12294
C          7.20099        3.12201       -3.07809
C          6.78949        4.56531       -2.59327
O          7.64791        5.15089       -1.86907
O          5.64907        4.97073       -2.94907
N          8.67441        2.95398       -3.14672
H          0.58124       -0.89452        0.74893
H          0.57064       -0.50238       -0.98380
H          0.49404        0.79852        0.21729
H          2.90740       -1.08939       -0.18283
H          2.83028        0.21227        0.99946
H          2.60030        1.89233       -0.87011
H          2.68344        0.58694       -2.04800
H          4.99385       -0.00558       -1.21589
H          4.90613        1.31539       -0.05153
H          4.69032        2.98511       -1.93428
H          4.73722        1.67390       -3.10079
H          7.05864        1.07980       -2.40372
H          7.00061        2.27926       -1.10623
H          6.77127        2.96106       -4.08178
H          9.00074        3.62259       -2.42811
H          8.98454        3.38880       -4.02036
