43

N          1.97884       -0.22841       -1.05690
C          3.04520        0.56353       -0.69893
O          3.32244        1.58583       -1.32919
C          3.84948        0.04381        0.47369
C          5.03001       -0.87506        0.01589
C          5.63366       -1.68016        1.14372
C          4.86861       -2.76295        1.65480
C          3.68751       -3.24724        0.98084
C          2.90685       -4.28315        1.48546
C          3.19780       -4.92003        2.69987
C          4.32510       -4.43897        3.40065
C          5.12237       -3.41447        2.91650
C          4.61177       -5.03738        4.74669
F          4.60314       -6.41088        4.72161
F          5.81493       -4.67465        5.26982
F          3.66968       -4.68916        5.68739
C          1.66488       -4.68107        0.74419
F          1.73500       -4.45156       -0.60365
F          1.35049       -6.00231        0.89127
F          0.55230       -3.98823        1.17170
C          6.91934       -1.25392        1.66304
C          7.86390       -2.14210        2.26084
C          9.10774       -1.71603        2.71189
C          9.52330       -0.37616        2.60237
C          8.62184        0.50880        1.99239
C          7.37127        0.09337        1.53851
C         10.86475        0.07891        3.11929
H          1.49197       -0.01796       -1.91971
H          1.79292       -1.10989       -0.59405
H          3.20594       -0.53181        1.15620
H          4.25099        0.90360        1.02510
H          5.79135       -0.24786       -0.46701
H          4.65759       -1.54174       -0.78268
H          3.40806       -2.82361        0.01831
H          2.58732       -5.73318        3.08411
H          5.94423       -3.06255        3.53514
H          7.62923       -3.20514        2.31743
H          9.79120       -2.45427        3.14429
H          8.90300        1.56050        1.87599
H          6.71502        0.84005        1.08808
H         10.90130        0.09645        4.22264
H         11.10137        1.09407        2.76901
H         11.67811       -0.58666        2.78689
