55

C          0.31714        1.65130        1.33224
C          1.65843        1.00304        0.97399
C          2.85555        1.62641        1.70141
C          4.20810        0.99452        1.34962
C          5.38801        1.54553        2.17263
C          6.73145        0.89350        1.86738
Sb         8.48171        1.31294        3.28552
C          7.32826        0.40424        5.12665
C          6.43700        1.42881        5.83866
C          7.12460        2.16988        6.98917
C          6.58210       -0.86873        4.73859
C         10.36684        1.60362        4.53917
C         10.57957        2.98254        5.13976
C         11.87221        3.12854        5.96239
C         12.03133        4.48204        6.66531
C         13.35434        4.62686        7.42673
C         13.50638        5.96184        8.16175
H         -0.52291        1.17741        0.80243
H          0.31097        2.72166        1.07445
H          0.11430        1.57546        2.41165
H          1.81833        1.06840       -0.11623
H          1.61747       -0.07529        1.20607
H          2.69520        1.54646        2.79183
H          2.88930        2.70943        1.48386
H          4.41246        1.12776        0.27188
H          4.15083       -0.09750        1.51094
H          5.13310        1.41496        3.23847
H          5.45796        2.63758        2.02406
H          7.11270        1.19365        0.87799
H          6.64944       -0.20530        1.87544
H          7.80190        2.95251        3.73842
H          9.10225       -0.36624        2.91683
H          9.39194        2.03544        1.89650
H          8.16803        0.12883        5.78826
H          5.52656        0.93345        6.23405
H          6.07615        2.18898        5.11993
H          7.49203        1.46561        7.75309
H          6.44289        2.88101        7.48301
H          7.98931        2.74216        6.62551
H          5.68114       -0.65219        4.14250
H          6.24141       -1.44308        5.62435
H          7.21699       -1.53979        4.13720
H         11.16979        1.34051        3.83130
H         10.33208        0.82739        5.32181
H          9.72560        3.24205        5.79096
H         10.57398        3.74515        4.33908
H         12.74123        2.95270        5.30266
H         11.90469        2.32402        6.71940
H         11.18865        4.62904        7.36496
H         11.94815        5.29565        5.92212
H         14.19140        4.50004        6.71861
H         13.44715        3.79792        8.14976
H         13.43242        6.81127        7.46533
H         14.47610        6.03748        8.67654
H         12.71768        6.09165        8.91881
