18

N          1.15486       -0.09266       -0.44970
N          2.36992        0.20567        0.27602
C          3.04977       -0.89298        0.60851
C          2.67222       -2.26649        0.34035
C          3.44446       -3.33488        0.80043
C          4.62801       -3.16691        1.53515
C          5.02671       -1.82462        1.77690
C          4.28935       -0.74197        1.33839
C          5.42995       -4.33375        2.04846
H          0.60962        0.77066       -0.38830
H          0.60169       -0.79554        0.07809
H          1.80018       -2.47276       -0.28190
H          3.11545       -4.35632        0.56557
H          5.95555       -1.63943        2.33096
H          4.62646        0.27830        1.54277
H          5.03019       -5.28355        1.65827
H          5.42503       -4.41617        3.15416
H          6.49466       -4.28451        1.75024
