58

F          1.21097        1.18927       -0.99932
C          2.46571        0.73482       -0.66520
O          2.74468        0.80596        0.62816
C          2.72871        2.14530        1.24200
P          2.83191        1.94113        3.20510
C          4.77700        2.19526        3.28371
C          5.34285        2.92079        4.34059
C          6.72934        2.97837        4.52573
C          7.59123        2.30212        3.65275
C          7.03810        1.56599        2.60465
C          5.64437        1.51295        2.42539
C          7.92744        0.80673        1.66007
F          9.25741        0.97255        1.92455
F          7.69436       -0.54071        1.69623
F          7.74447        1.18360        0.35848
C          7.32334        3.80378        5.63207
F          6.46004        4.01703        6.66020
F          8.44352        3.23013        6.17237
F          7.71742        5.04681        5.19876
C          2.47043        3.85158        3.37937
C          1.42516        4.21603        4.23938
C          1.04980        5.54814        4.41638
C          1.70804        6.58868        3.72302
C          2.76063        6.22274        2.86298
C          3.13517        4.88253        2.70193
Si         1.19366        8.37505        3.97214
C          1.50772        8.89043        5.78293
C          2.95525        8.68968        6.24499
C          3.20555        9.13440        7.66916
F          2.43190        8.46731        8.57243
F          4.50279        8.93744        8.04272
F          2.94951       10.46743        7.85039
C          2.16925        9.52808        2.83189
C         -0.65724        8.60232        3.65151
F          2.53108       -0.56292       -1.06045
F          3.33138        1.43977       -1.47058
H          1.75873        2.61429        1.02376
H          3.54167        2.73003        0.78848
H          2.86479        1.83893        4.68805
H          3.09086        0.50090        3.04497
H          1.36660        1.71200        3.22365
H          4.68075        3.43798        5.04001
H          8.66967        2.33948        3.79655
H          5.23116        0.90854        1.61280
H          0.89589        3.42008        4.77669
H          0.22804        5.78219        5.10248
H          3.30343        6.99306        2.30692
H          3.97322        4.64683        2.03970
H          0.83197        8.30291        6.42481
H          1.21380        9.94609        5.90198
H          3.66334        9.25402        5.61977
H          3.24606        7.63053        6.18360
H          3.25257        9.46906        3.00871
H          1.86039       10.57271        2.98446
H          1.99373        9.27711        1.77610
H         -1.25249        7.93182        4.28776
H         -0.90102        8.36675        2.60588
H         -0.97804        9.63487        3.85391
