68

C          1.01283       -0.22299       -0.68888
Si         2.89920       -0.16780       -0.81307
C          3.48180       -1.12502       -2.33047
C          2.75161       -1.09363       -3.53810
C          3.16107       -1.82042       -4.65817
C          4.32134       -2.62139       -4.62183
C          5.06038       -2.64278       -3.41904
C          4.65214       -1.90916       -2.29997
Ta         5.08751       -3.91881       -6.16566
S          3.29920       -4.63854       -7.69874
O          2.43332       -3.44683       -7.47167
O          3.50239       -5.11681       -9.07133
C          2.16031       -6.10515       -7.04545
C          1.44079       -5.91231       -5.65880
C         -0.03483       -5.36318       -5.72245
C         -0.59125       -4.82954       -4.34923
F         -0.41580       -5.72735       -3.35807
F         -0.00946       -3.67268       -3.99336
F         -1.92103       -4.60512       -4.47806
F         -0.14781       -4.34705       -6.60569
F         -0.86017       -6.37812       -6.11001
F          1.37448       -7.11474       -5.00810
F          2.17549       -5.07175       -4.87228
F          1.20722       -6.34448       -7.99509
F          2.93683       -7.21862       -6.96041
C          7.04526       -2.95535       -6.66591
F          7.88039       -2.76376       -5.56105
F          7.82492       -3.60624       -7.59286
F          6.89708       -1.65874       -7.16122
C          3.45977        1.65621       -0.90099
C          2.89216        2.45826       -2.08002
C          3.38549        3.89629       -2.09215
C          2.94468        4.78833       -3.30622
C          1.40886        5.07810       -3.55148
C          0.59770        5.80042       -2.40703
C         -0.74312        6.46647       -2.91026
C         -1.75466        6.84142       -1.76311
F         -1.15046        7.57340       -0.80786
F         -2.75393        7.57382       -2.29575
F         -2.28892        5.74400       -1.20177
F         -0.44620        7.61429       -3.56998
F         -1.39155        5.62388       -3.75535
F          0.28374        4.88088       -1.45338
F          1.35259        6.77643       -1.84633
F          1.34945        5.86529       -4.66254
F          0.78693        3.90074       -3.83018
F          3.57383        5.99226       -3.21792
F          3.37260        4.17347       -4.44697
F          3.00546        4.56443       -0.94528
F          4.75991        3.92978       -2.12266
C          3.65452       -0.88160        0.76497
H          0.52153        0.18673       -1.58265
H          0.66149        0.35247        0.18049
H          0.66520       -1.25918       -0.57317
H          1.82775       -0.51051       -3.60344
H          2.55843       -1.79248       -5.56876
H          5.97440       -3.24301       -3.34630
H          5.25183       -1.96307       -1.38715
H          4.77773       -5.60785       -5.75678
H          6.45124       -4.84278       -5.56148
H          5.10825       -3.34571       -7.83402
H          4.55995        1.66420       -0.94097
H          3.17652        2.13764        0.04953
H          1.79356        2.48145       -2.04706
H          3.17822        2.00386       -3.04035
H          3.39310       -1.94206        0.88588
H          3.28387       -0.33863        1.64680
H          4.75087       -0.80386        0.76428
