43

C          1.05120        1.39305        0.46837
C          2.43830        0.78318        0.23272
C          2.61180        0.07560       -1.11260
P          2.88756        1.36898       -2.59263
C          3.38385        2.55881       -4.06982
C          4.86779        2.43485       -4.33025
C          5.45984        3.15930       -5.51954
O          4.91004        3.91504       -6.28649
O          6.81513        2.90136       -5.70739
C          0.99549        1.36800       -3.19071
C          0.31346        2.73543       -3.13182
C         -1.19361        2.61951       -2.85025
C         -2.00934        3.89511       -2.85645
C         -1.61560        5.00278       -1.82672
F         -0.43806        5.57817       -2.13734
F         -2.55318        5.98374       -1.79259
F         -1.52086        4.48196       -0.58064
F         -1.99547        4.50146       -4.09505
F         -3.33905        3.59817       -2.58699
C          3.78355       -0.90026       -1.07740
H          0.96621        1.82807        1.47639
H          0.26170        0.63081        0.36513
H          0.84310        2.19359       -0.25354
H          2.66317        0.08558        1.06400
H          3.19966        1.58579        0.30038
H          1.69292       -0.49022       -1.35073
H          4.31886        1.41094       -2.13061
H          3.18524        0.20984       -3.51078
H          2.58479        2.53636       -1.69986
H          3.11466        3.59848       -3.82547
H          2.81652        2.25409       -4.96291
H          5.12106        1.35859       -4.43347
H          5.43414        2.76445       -3.43784
H          7.08745        2.27558       -5.01286
H          0.45473        0.65439       -2.54860
H          0.98150        0.95667       -4.21268
H          0.47102        3.29435       -4.06657
H          0.79371        3.32938       -2.33218
H         -1.35364        2.13548       -1.87465
H         -1.67567        1.97801       -3.60584
H          4.71221       -0.38632       -0.77839
H          3.96029       -1.33593       -2.07419
H          3.61772       -1.73092       -0.36834
