34

C          4.82433        1.14431        4.78375
O          4.92031        1.04872        3.38014
C          6.20989        0.60442        2.95634
C          6.32127        0.68665        1.44727
O          6.54115        2.02235        1.06367
C          6.65398        2.17166       -0.36237
C          7.23447        3.52955       -0.69346
P          9.20929        3.57158       -0.74482
C          9.07406        2.97895       -2.65561
O         10.43200        2.71578       -3.19097
C         10.52126        2.24585       -4.41528
F         10.00188        3.07413       -5.39376
F         11.83499        2.05844       -4.73470
F          9.89711        1.03001       -4.61873
C          9.24688        5.44736       -1.26848
H          3.80961        1.49229        5.01963
H          5.55560        1.86609        5.19701
H          4.99037        0.16510        5.27863
H          6.37010       -0.44259        3.28804
H          6.99861        1.23543        3.40889
H          5.39345        0.27869        0.98974
H          7.16430        0.04365        1.11608
H          5.65106        2.00249       -0.81432
H          7.33454        1.37524       -0.74029
H          6.92975        4.26021        0.07249
H          6.83074        3.87842       -1.65910
H          9.28651        3.95189        0.69179
H          9.22828        2.11781       -0.36254
H         10.68426        3.54640       -0.84428
H          8.60668        3.73500       -3.30521
H          8.51393        2.03269       -2.70843
H          8.25481        5.88056       -1.47787
H          9.88036        5.57306       -2.16039
H          9.70213        6.00412       -0.43503
