60

C          9.02287       -2.92175       -5.18948
C          8.48015       -2.17316       -3.97000
C          9.10372       -0.78641       -3.78557
C          8.57842       -0.02956       -2.56251
C          9.20206        1.35780       -2.38433
C          8.68973        2.11372       -1.15482
C          9.28957        3.51707       -1.00848
C          8.77984        4.29482        0.21482
Si         9.31533        6.12438        0.25336
C          8.72042        6.94694       -1.31987
C          7.36322        6.84589       -1.69477
C          6.89769        7.39475       -2.89344
C          7.74104        8.08212       -3.79122
C          9.08944        8.19355       -3.39327
C          9.57367        7.64016       -2.20197
Ga         7.07728        8.86452       -5.56563
C          5.19155        9.60708       -5.32315
C          5.13470       10.78284       -4.33830
C          7.23198        7.47135       -7.05557
C          8.59919        6.77758       -7.10466
C          8.54122        6.92720        1.78903
C         11.20206        6.22908        0.41712
H          8.55717       -3.91172       -5.29995
H         10.11044       -3.07135       -5.11142
H          8.83455       -2.35916       -6.11611
H          8.65395       -2.77319       -3.06025
H          7.38544       -2.06837       -4.05848
H          8.92294       -0.18338       -4.69260
H         10.20078       -0.88998       -3.70667
H          8.76061       -0.63286       -1.65488
H          7.48170        0.07345       -2.64218
H          9.00776        1.96270       -3.28680
H         10.30030        1.25745       -2.31915
H          8.90018        1.52328       -0.24450
H          7.59025        2.20105       -1.21320
H          9.06780        4.09391       -1.92197
H         10.38992        3.43413       -0.96478
H          9.08986        3.79302        1.14886
H          7.67502        4.28375        0.21890
H          6.65478        6.32228       -1.04085
H          5.83487        7.28352       -3.13725
H          9.78698        8.73648       -4.04067
H         10.63612        7.74866       -1.95667
H          8.10724       10.07867       -5.90520
H          4.50593        8.80567       -4.99415
H          4.82370        9.92931       -6.31323
H          5.47023       10.47793       -3.33365
H          4.12520       11.22400       -4.22122
H          5.80895       11.59517       -4.65522
H          7.04739        8.00226       -8.00625
H          6.42931        6.71908       -6.96304
H          9.41615        7.51418       -7.18444
H          8.71623        6.07371       -7.95198
H          8.78843        6.20596       -6.18180
H          7.44382        6.92058        1.71991
H          8.85862        7.97625        1.87785
H          8.82790        6.40290        2.71338
H         11.71042        5.75870       -0.43637
H         11.53941        5.72226        1.33377
H         11.53909        7.27442        0.46927
