20

O          1.89229        0.81857        0.19065
C          2.24764       -0.44799        0.13838
O          2.07682       -1.22218        1.07714
C          3.02543       -0.93487       -1.08231
C          4.19082       -1.65241       -0.75718
C          5.06528       -2.11765       -1.73458
C          4.77185       -1.88629       -3.08127
C          3.60111       -1.21671       -3.42661
C          2.70996       -0.74212       -2.44864
C          1.47785        0.02394       -2.89556
C          1.82402        1.57920       -3.05931
O          1.91146        2.05690       -4.18911
O          2.01901        2.13183       -1.92528
Cl         0.79760       -0.65889       -4.43913
F          0.46100       -0.12732       -1.96218
H          1.97477        1.34393       -0.74004
H          4.38639       -1.83455        0.30015
H          5.96945       -2.65796       -1.44708
H          5.44454       -2.23903       -3.86532
H          3.35086       -1.05924       -4.47501
