33

C          3.13530       -0.91134       -1.30913
C          2.50140       -0.10746       -0.16642
In         3.31113       -0.48515        1.93026
C          1.88312       -1.89195        3.07899
C          0.68335       -2.41323        2.27455
C          1.01291       -3.40896        1.15407
C          2.56599       -3.01920        3.86116
C          5.45114       -1.29794        1.76870
C          5.71320       -2.80832        1.84786
C          5.04969       -3.57987        0.70997
S          5.21117       -5.40805        0.81584
H          2.72491       -0.66655       -2.30970
H          2.99483       -1.99735       -1.17822
H          4.22449       -0.75032       -1.36597
H          1.41321       -0.29069       -0.14215
H          2.62234        0.97119       -0.36066
H          3.39512        1.06113        2.84967
H          1.47601       -1.18124        3.82054
H          0.14161       -1.56030        1.83114
H         -0.04319       -2.91117        2.95824
H          1.67797       -2.95162        0.40693
H          0.10224       -3.74220        0.63082
H          1.51222       -4.30950        1.54289
H          3.05875       -3.75673        3.20819
H          1.84746       -3.59339        4.48867
H          3.34519       -2.63081        4.53509
H          5.99915       -0.80039        2.58557
H          5.87967       -0.89807        0.83160
H          5.34452       -3.21530        2.80245
H          6.79890       -3.04755        1.81858
H          5.42732       -3.25209       -0.26880
H          3.96289       -3.41343        0.71203
H          6.56147       -5.44158        0.92260
