31

C          2.95378       -1.27464       -2.63543
C          3.90698       -1.50874       -1.45475
Ga         2.98658       -1.43435        0.37028
C          1.72081       -3.02808        0.69998
C          0.27993       -2.76947        0.25298
C         -0.67588       -3.92888        0.61469
C         -2.11410       -3.72789        0.18993
C         -3.07446       -4.90613        0.54081
F         -2.66932       -6.05560       -0.05351
F         -3.10932       -5.12230        1.87847
F         -4.34289       -4.66142        0.13315
F         -2.67018       -2.60911        0.77597
F         -2.22470       -3.55601       -1.17605
C          4.28312       -1.13997        1.92788
N          3.56813       -0.45713        3.03739
H          3.45487       -1.25527       -3.62349
H          2.41761       -0.31790       -2.52475
H          2.17881       -2.05738       -2.68961
H          4.69524       -0.73488       -1.45809
H          4.42901       -2.47428       -1.57941
H          2.04410       -0.08736        0.41373
H          1.73798       -3.23157        1.78577
H          2.11017       -3.93530        0.20224
H          0.23897       -2.60374       -0.83555
H         -0.09166       -1.84058        0.71343
H         -0.67177       -4.08658        1.70453
H         -0.32258       -4.86385        0.15243
H          5.14593       -0.55317        1.54902
H          4.69242       -2.09368        2.30632
H          2.89814        0.20269        2.63294
H          4.20421        0.09681        3.61734
