39

N          1.59034       -0.62583        0.23785
C          2.53681        0.50400        0.18455
C          3.75765        0.37140        1.10721
Ta         5.39396       -1.09315        0.88014
C          6.50594       -0.16495       -0.77999
C          7.85024       -0.67416       -1.29949
C          8.39988        0.07440       -2.52605
C          9.74458       -0.46204       -3.01013
N         10.21977        0.26912       -4.20220
C          6.62999       -0.52034        2.65659
C          6.83720        0.98671        2.90532
C          7.81767        1.24900        4.05378
S          7.95354        2.99964        4.62391
H          1.15732       -0.62377        1.16618
H          2.17770       -1.47325        0.24473
H          1.95807        1.42406        0.39573
H          2.87642        0.60599       -0.86196
H          3.41120        0.25742        2.15744
H          4.33383        1.32820        1.08965
H          5.69169       -2.44706       -0.25152
H          5.65655       -2.62439        1.76912
H          3.93553       -2.13882        0.72058
H          6.59812        0.91171       -0.50598
H          5.75233       -0.19982       -1.59723
H          7.75176       -1.74582       -1.54109
H          8.60453       -0.61648       -0.49254
H          8.49966        1.15015       -2.30355
H          7.66355       -0.00304       -3.34793
H          9.65260       -1.55453       -3.17584
H         10.49837       -0.32741       -2.21610
H          9.52686        0.17627       -4.94847
H         11.07635       -0.15829       -4.55886
H          7.60775       -1.01527        2.47802
H          6.23173       -0.99003        3.57295
H          5.87870        1.47576        3.14501
H          7.21828        1.49586        2.00121
H          8.82366        0.88312        3.80416
H          7.49082        0.71581        4.95928
H          8.28059        3.53449        3.42366
