51

O          4.68576        0.79441       -0.20676
Ta         3.33547       -0.55383        0.04709
S          0.90213       -1.11978       -0.04260
O          1.12629       -2.59253       -0.13190
O         -0.14270       -0.64736        0.87365
C          0.03084       -0.64370       -1.78523
C         -0.01362       -1.75875       -2.87315
C         -0.48560       -1.28951       -4.30609
C         -0.90200       -2.45130       -5.28078
F          0.04599       -3.40426       -5.35165
F         -2.06219       -3.02109       -4.90451
F         -1.07786       -1.94144       -6.52493
F         -1.56313       -0.46153       -4.21460
F          0.52653       -0.61035       -4.91047
F          1.21439       -2.31129       -3.04456
F         -0.87859       -2.72852       -2.45215
F         -1.25051       -0.26859       -1.52474
F          0.68592        0.44976       -2.29524
C          4.58350       -2.08792        0.97267
C          5.89280       -1.82088        1.43829
C          6.75279       -2.83488        1.86253
C          6.32906       -4.17206        1.82531
C          5.03892       -4.47118        1.36007
C          4.18694       -3.44599        0.94930
C          7.26061       -5.26615        2.26134
C          7.55302       -5.40367        3.80638
C          6.36259       -5.59493        4.82099
C          5.43612       -6.87953        4.77913
C          6.10447       -8.29627        4.93703
C          5.09102       -9.45165        5.29015
F          4.05338       -9.46927        4.43521
F          5.74231      -10.63108        5.19718
F          4.62310       -9.33226        6.54520
F          6.70827       -8.64164        3.77492
F          7.03225       -8.27227        5.93004
F          4.56804       -6.72391        5.82275
F          4.72033       -6.87233        3.63029
F          6.91528       -5.55279        6.06956
F          5.52163       -4.53808        4.69994
F          8.42162       -6.44111        4.00405
F          8.18034       -4.26131        4.21257
F          6.83153       -6.50357        1.84177
F          8.52205       -5.08356        1.71566
H          4.66829        1.69240        0.14679
H          2.88394       -0.94509       -1.62698
H          2.51891       -1.03346        1.54433
H          2.52615        0.77947        0.86818
H          6.26058       -0.79210        1.45536
H          7.76039       -2.59066        2.20241
H          4.70251       -5.50695        1.31741
H          3.18152       -3.70272        0.60589
