47

C          6.50223        0.59412        4.43697
C          6.05504        0.26184        3.01090
C          6.72593       -0.99072        2.43807
C          6.27302       -1.33529        1.01636
C          6.96332       -2.57550        0.43868
C          6.45678       -2.87934       -0.97702
C          7.24026       -3.93169       -1.80242
S          7.03748       -5.57953       -0.93646
O          7.84641       -5.59248        0.27823
O          5.59806       -5.84907       -0.79484
C          7.71276       -6.81162       -2.05549
C          6.62019       -4.04890       -3.19540
C          7.41061       -3.88422       -4.34916
C          6.83502       -3.94215       -5.62024
C          5.46518       -4.17298       -5.78456
C          4.67910       -4.33961       -4.64561
C          5.24528       -4.27667       -3.36551
C          3.21037       -4.63796       -4.78494
F          2.71298       -4.26890       -6.00197
F          2.94138       -5.97376       -4.65372
F          2.45681       -4.00351       -3.84493
C          7.67052       -3.73941       -6.85666
F          8.98939       -3.59838       -6.59912
F          7.54517       -4.78791       -7.73272
F          7.27993       -2.62647       -7.55696
C          8.79861       -3.55299       -1.96442
O          9.56266       -4.50852       -2.25018
O          9.03377       -2.32924       -1.88230
H          6.00601        1.49748        4.82111
H          7.58846        0.76517        4.48158
H          6.27254       -0.23227        5.12671
H          6.26650        1.11926        2.34941
H          4.95978        0.12773        2.99038
H          6.52445       -1.84847        3.10402
H          7.82138       -0.85314        2.44605
H          6.46944       -0.47259        0.35467
H          5.17680       -1.48091        1.01209
H          6.79457       -3.43758        1.10032
H          8.04836       -2.40490        0.39667
H          6.53284       -1.95796       -1.57498
H          5.39178       -3.15837       -0.92935
H          8.72696       -6.47303       -2.30297
H          7.07135       -6.88865       -2.94018
H          7.69832       -7.74541       -1.48004
H          8.48187       -3.71654       -4.24036
H          5.02117       -4.21685       -6.77820
H          4.61507       -4.43060       -2.49118
