66

N          1.73195        1.43941        0.18207
C          2.02634        0.17657       -0.51142
Ta         3.19340        1.71118       -1.56220
C          1.83627        3.41629       -1.90568
C          2.15437        4.73052       -1.47625
C          1.26781        5.80179       -1.60536
C         -0.01796        5.63951       -2.17071
C         -0.35162        4.33559       -2.59996
C          0.54345        3.27176       -2.47074
Si        -1.24012        7.04427       -2.28511
C         -0.33704        8.71937       -2.46928
C          0.59637        8.81313       -3.68427
C          1.22518       10.18802       -3.82726
C          2.34192       10.35976       -4.92010
C          2.03353       10.04172       -6.43240
C          0.94630       10.85858       -7.24331
C          1.10950       12.42112       -7.35309
C          0.26011       13.07716       -8.50853
F         -1.02606       12.68356       -8.45053
F          0.30392       14.41791       -8.36157
F          0.75672       12.77241       -9.71981
F          0.71537       12.99748       -6.19327
F          2.40823       12.74124       -7.59042
F          0.99450       10.35486       -8.51222
F         -0.27975       10.58689       -6.73117
F          3.20973       10.17404       -7.10380
F          1.64375        8.74007       -6.52340
F          2.81216       11.64181       -4.87131
F          3.36692        9.52472       -4.58733
F          0.26617       11.14940       -4.07447
F          1.84993       10.56201       -2.65726
C         -2.40224        6.82464       -3.76814
C         -2.30935        7.20934       -0.72566
C          5.40776        1.75082       -1.96184
C          6.02024        1.52660       -3.35045
C          5.94619        2.75879       -4.24549
N          6.60562        2.51819       -5.54885
H          2.13247        1.56489        1.10586
H          0.78131        1.79879        0.12321
H          1.13345       -0.27316       -0.96149
H          2.54321       -0.55261        0.12389
H          3.35404        0.32781       -2.69189
H          4.12796        2.13240       -0.02853
H          3.28522        2.25782       -3.27645
H          3.13043        4.92455       -1.01740
H          1.58393        6.78819       -1.24507
H         -1.33117        4.14612       -3.05342
H          0.22742        2.29263       -2.85318
H          0.23426        8.90787       -1.54724
H         -1.10639        9.50685       -2.52182
H          0.05293        8.60119       -4.61617
H          1.40548        8.07128       -3.61092
H         -1.84749        6.76295       -4.71506
H         -3.11257        7.66192       -3.83898
H         -2.98848        5.89922       -3.67466
H         -1.68205        7.37027        0.16269
H         -2.89024        6.29112       -0.55787
H         -3.01598        8.04991       -0.80277
H          5.68016        0.89950       -1.29895
H          5.89323        2.62124       -1.47926
H          5.51009        0.69399       -3.85987
H          7.09392        1.24069       -3.26669
H          6.37772        3.62365       -3.69764
H          4.88569        2.98946       -4.42854
H          7.59472        2.31075       -5.38960
H          6.58296        3.37040       -6.11243
