26

C          0.91795        1.34475       -2.30665
C          2.37582        0.90600       -2.49444
C          3.20880        0.92200       -1.20603
B          4.77014        0.44937       -1.39883
C          5.42008        0.13891        0.06318
F          4.73422       -0.80926        0.81141
F          6.73149       -0.34074        0.04728
F          5.49247        1.24529        0.91711
C          5.66897        1.59010       -2.19018
C          7.02583        1.11797       -2.72921
C          7.86630        2.12438       -3.50143
O          8.87936        1.86670       -4.12303
O          7.41527        3.41711       -3.45435
H          0.34392        1.31294       -3.24775
H          0.86364        2.37366       -1.91607
H          0.40507        0.69576       -1.57888
H          2.84521        1.55345       -3.25673
H          2.39837       -0.11238       -2.91990
H          2.70706        0.26586       -0.47057
H          3.16003        1.94062       -0.76901
H          4.81856       -0.61809       -2.02093
H          5.81083        2.44750       -1.49787
H          5.05781        1.95849       -3.03604
H          6.89790        0.24383       -3.38669
H          7.66451        0.75565       -1.90738
H          6.58732        3.38447       -2.92530
