8

N          0.93393        0.01813       -0.12962
N          2.40098       -0.03506       -0.11735
C          2.84430       -1.03747       -0.81547
F          2.43891       -2.44446       -0.34272
F          2.44462       -1.21764       -2.20532
F          4.21777       -1.11461       -0.85252
H          0.72472        0.64570        0.65163
H          0.59908       -0.90190        0.19927
