81

C         14.88608        2.85471       -2.55858
C         14.49120        1.55965       -1.84498
C         13.60947        0.64397       -2.69902
C         13.20165       -0.65258       -1.99409
C         12.31701       -1.56551       -2.84814
C         11.87828       -2.84433       -2.12957
C         10.98390       -3.75666       -2.97844
C         10.51593       -5.01763       -2.23770
Si         9.39721       -6.21738       -3.20483
C          8.85368       -7.59100       -2.04195
C          7.92771       -7.32848       -1.00925
C          7.52824       -8.32052       -0.11200
C          8.04276       -9.63385       -0.19269
C          8.96706       -9.89414       -1.22589
C          9.36164       -8.90101       -2.12915
Nb         7.59055      -11.09375        1.35174
S          5.22024      -11.09497        2.04462
O          4.98869       -9.62973        1.94401
O          4.17670      -11.98753        1.51551
C          5.03387      -11.43259        3.97628
C          3.57953      -11.72897        4.45524
C          3.35317      -11.67599        6.01173
F          4.24595      -12.45021        6.66596
F          3.44155      -10.42151        6.49440
F          2.11160      -12.13959        6.30633
F          2.72278      -10.81630        3.91894
F          3.20650      -12.97632        4.06307
F          5.81224      -12.52024        4.28347
F          5.50237      -10.37124        4.69564
C          9.26398      -12.47847        1.42925
C          9.59040      -13.59457        0.44531
C         10.86309      -14.38970        0.77626
C         11.14408      -15.50834       -0.22627
N         12.33010      -16.26747        0.16129
C         12.87737      -17.31761       -0.55375
N         13.81401      -18.12025       -0.15528
N         12.40631      -17.43796       -1.86162
C          7.88590       -5.27754       -3.85553
C         10.35561       -6.92642       -4.67739
H         15.52010        3.49081       -1.92491
H         13.99691        3.44152       -2.83523
H         15.44262        2.64485       -3.48449
H         13.96157        1.80096       -0.90776
H         15.40023        1.01071       -1.54564
H         14.13988        0.39996       -3.63679
H         12.70085        1.19471       -3.00149
H         12.67137       -0.40581       -1.05736
H         14.10910       -1.20410       -1.69047
H         12.85518       -1.83173       -3.77539
H         11.42113       -1.00484       -3.16961
H         11.34081       -2.57644       -1.20286
H         12.76998       -3.41069       -1.80740
H         11.53101       -4.03788       -3.89575
H         10.10785       -3.17654       -3.31785
H          9.97131       -4.73068       -1.32100
H         11.38974       -5.59485       -1.88732
H          7.49398       -6.32781       -0.90772
H          6.78164       -8.08124        0.65142
H          9.39224      -10.89702       -1.34367
H         10.07817       -9.15809       -2.91536
H          6.28658      -11.11158        0.19172
H          6.94937      -12.66962        0.95934
H          7.49006      -10.49926        3.03478
H          9.09604      -12.88757        2.44898
H         10.11824      -11.76516        1.51796
H          9.69497      -13.17717       -0.57260
H          8.73122      -14.28291        0.39838
H         10.75820      -14.82570        1.78634
H         11.73207      -13.71213        0.81456
H         11.31139      -15.07270       -1.22486
H         10.24809      -16.15904       -0.29562
H         12.51606      -16.29959        1.15774
H         14.14696      -17.85739        0.77673
H         11.41778      -17.25672       -2.00571
H         12.72480      -18.30498       -2.28236
H          7.29718       -4.84726       -3.03271
H          7.22417       -5.95400       -4.41492
H          8.17731       -4.45604       -4.52637
H         11.26535       -7.45243       -4.35422
H         10.66054       -6.12664       -5.36807
H          9.73917       -7.63937       -5.24330
