46

N          3.90747        1.71203       -2.62898
C          2.69347        1.52518       -1.77361
C          2.89419        0.14811       -1.16862
Nb         5.16379        0.15567       -1.24516
C          6.50775        0.22172        0.55188
C          5.99516        0.23626        1.86749
C          6.81247        0.33170        3.00075
C          8.20764        0.42054        2.88739
C          8.74134        0.41380        1.58860
C          7.91514        0.31403        0.46419
C          9.09896        0.47983        4.10544
C          6.08086       -0.23715       -3.26080
C          6.56955       -1.60028       -3.76087
C          5.46575       -2.66646       -3.85318
C          4.34476       -2.34280       -4.84565
C          3.29891       -3.45517       -4.96997
C          2.17019       -3.12634       -5.95079
H          4.21408        2.68026       -2.70941
H          3.76682        1.33667       -3.56808
H          1.76023        1.70949       -2.35230
H          2.73782        2.29295       -0.98729
H          2.51504       -0.65990       -1.82100
H          2.44046        0.01671       -0.17816
H          6.19008       -1.27548       -1.14173
H          5.58556        1.84790       -0.71153
H          4.66745       -1.18683       -0.20054
H          4.91280        0.16138        2.01988
H          6.35655        0.33321        3.99822
H          9.82822        0.48022        1.45743
H          8.39397        0.29995       -0.52169
H          9.44773       -0.52172        4.41443
H          8.57194        0.91601        4.96783
H          9.99807        1.08783        3.91917
H          6.96308        0.40628       -3.03083
H          5.55662        0.29350       -4.08396
H          7.33275       -1.97295       -3.06088
H          7.05910       -1.52601       -4.75722
H          5.03733       -2.79933       -2.84443
H          5.91622       -3.63628       -4.13638
H          4.77982       -2.14141       -5.84280
H          3.84105       -1.41047       -4.53885
H          2.87308       -3.66034       -3.97367
H          3.79842       -4.38879       -5.28304
H          1.62506       -2.22333       -5.63668
H          1.44032       -3.94628       -6.02592
H          2.56481       -2.93633       -6.96118
