27

C          5.88104        0.24163        3.04887
C          5.09130        0.12543        1.74162
C          5.42974        1.22294        0.72981
C          4.64183        1.13209       -0.57816
C          5.06555        2.19275       -1.60597
N          6.45175        2.00764       -1.95297
C          6.99699        2.66817       -2.92677
C          7.00052        4.23773       -3.00188
C          7.64644        4.95007       -1.76497
F          8.92888        4.57700       -1.57058
F          7.64995        6.30494       -1.95652
F          6.96335        4.72199       -0.62332
F          7.67694        4.73898       -4.09188
F          5.71503        4.72362       -3.06912
F          8.34237        2.30960       -3.14229
F          6.38145        2.41046       -4.37442
H          5.62788       -0.56159        3.75784
H          5.68052        1.20307        3.54684
H          6.96393        0.19368        2.85872
H          4.00909        0.14629        1.96398
H          5.28539       -0.85939        1.28227
H          6.50232        1.18944        0.47909
H          5.25251        2.21228        1.19130
H          3.55971        1.23410       -0.37380
H          4.79913        0.13565       -1.02684
H          4.84403        3.19198       -1.16194
H          4.40568        2.10407       -2.49286
