36

C          0.86342       -0.11828        0.36441
C          2.39122       -0.08712        0.27238
C          3.01930       -1.48082        0.17386
C          4.54528       -1.42641        0.04311
C          5.29535       -2.76946        0.14711
C          5.21009       -3.40375        1.61822
O          4.61174       -2.75139        2.49649
O          5.81801       -4.51665        1.73479
C          4.71696       -3.83518       -0.76984
O          4.79634       -3.36743       -2.18585
C          4.37059       -4.21192       -3.11080
F          3.04787       -4.57215       -2.97779
F          4.49875       -3.63246       -4.33294
F          5.06335       -5.39785       -3.15602
C          6.79894       -2.57014       -0.18022
C          7.60570       -1.78976        0.89232
C          8.78978       -2.54786        1.50071
O          9.91579       -2.03772        1.59163
N          8.50416       -3.79875        1.94051
H          0.43632        0.89304        0.44208
H          0.53518       -0.68929        1.24602
H          0.42254       -0.60034       -0.52189
H          2.80363        0.42559        1.15768
H          2.69504        0.51785       -0.60042
H          2.57935       -2.00562       -0.69262
H          2.76689       -2.05715        1.07709
H          4.93319       -0.77614        0.84250
H          4.80595       -0.94746       -0.91833
H          3.65720       -4.03021       -0.55653
H          5.29526       -4.76216       -0.67893
H          6.88692       -2.05330       -1.14849
H          7.24775       -3.56487       -0.31277
H          6.94164       -1.51531        1.72966
H          8.01956       -0.85740        0.48970
H          7.53549       -4.18050        1.92110
H          9.25007       -4.30608        2.40102
