36

N          1.30205        0.10207        1.27005
C          2.59337        0.10505        0.54267
C          2.99844       -1.30126        0.10515
C          4.33826       -1.37859       -0.63782
B          4.86266       -2.91000       -0.98088
C          3.84219       -3.72260       -2.00222
C          3.71088       -3.07813       -3.38176
C          2.80832       -3.75970       -4.40339
O          2.24443       -4.84039       -4.26176
N          2.68900       -3.06471       -5.60346
C          6.39314       -2.88319       -1.62101
C          7.51685       -2.54164       -0.63422
C          8.88852       -2.51710       -1.30517
S         10.33884       -2.26717       -0.18724
H          1.15729        0.99955        1.73740
H          1.35422       -0.59672        2.01551
H          3.42218        0.53748        1.13999
H          2.47614        0.74964       -0.34575
H          2.18706       -1.72460       -0.51166
H          3.05781       -1.94537        1.00413
H          5.09755       -0.85791       -0.01954
H          4.25933       -0.76430       -1.56205
H          4.90881       -3.54694        0.09376
H          2.83153       -3.82394       -1.56760
H          4.20008       -4.75880       -2.13819
H          4.70555       -2.98987       -3.85772
H          3.35767       -2.03332       -3.28503
H          2.94182       -2.08391       -5.63219
H          1.96018       -3.37554       -6.23669
H          6.45260       -2.16690       -2.46911
H          6.62154       -3.87691       -2.05858
H          7.52234       -3.27152        0.19162
H          7.33081       -1.55605       -0.16997
H          8.92771       -1.75251       -2.09433
H          9.10055       -3.48787       -1.77975
H          9.86346       -1.15991        0.43076
