42

C          5.84757        4.72602       -8.27895
O          5.59273        5.08437       -6.93700
C          6.66631        5.83669       -6.37052
C          6.42947        6.04858       -4.88986
O          6.75392        4.86285       -4.18807
C          6.60240        4.98625       -2.75976
C          7.48764        3.93557       -2.13422
Nb         9.48702        3.81923       -3.01687
C          9.76398        1.61327       -2.46723
C         10.92706        0.70614       -2.97876
C         12.36620        1.29128       -2.79363
C         13.55427        0.35293       -3.22255
F         13.64128       -0.73988       -2.43750
F         13.45172       -0.04869       -4.50395
F         14.71749        1.03994       -3.09646
F         12.48868        2.42193       -3.54564
F         12.59292        1.60031       -1.48833
F         10.91349       -0.52226       -2.34545
F         10.76616        0.45845       -4.31295
F          9.78381        1.45426       -1.05987
F          8.61110        0.88089       -2.83801
S         10.74989        5.90433       -3.02450
O         11.30257        6.73654       -4.11544
O          9.33001        6.22439       -2.55314
C         11.77295        6.36107       -1.58620
H          4.98318        4.14768       -8.63255
H          6.75819        4.10401       -8.37067
H          5.97079        5.61738       -8.92773
H          6.74085        6.82130       -6.87669
H          7.62682        5.30529       -6.50573
H          5.36964        6.33374       -4.72224
H          7.07131        6.88115       -4.54101
H          5.52422        4.88056       -2.50701
H          6.93099        5.99071       -2.44192
H          7.10060        2.91431       -2.31365
H          7.59861        4.08363       -1.04672
H         10.77956        3.66350       -1.81966
H          9.73311        4.48668       -4.61870
H          9.48238        2.75004       -4.41689
H         12.80659        6.06385       -1.79918
H         11.39020        5.83960       -0.70352
H         11.69956        7.45152       -1.48444
