25

C          2.95813        1.45236        0.11441
C          2.29463        0.10194       -0.18423
C          2.87531       -0.68932       -1.34778
As         2.00818       -0.06241       -3.17082
S          0.45871       -2.08653       -3.22974
O         -0.13489       -2.27854       -4.57784
O          1.05137       -3.29248       -2.58907
C         -0.97165       -1.66917       -2.15464
F          3.06580        1.47710       -3.26901
C          4.38340       -0.68884       -1.51286
H          2.39806        1.99657        0.89036
H          2.99181        2.07641       -0.78926
H          3.99017        1.33002        0.47577
H          1.22372        0.29269       -0.40909
H          2.29726       -0.51897        0.73144
H          2.50960       -1.72760       -1.31085
H          3.08941       -0.96602       -3.94035
H          0.85225        0.71154       -2.32939
H          1.31201        0.31407       -4.51782
H         -1.46165       -0.76820       -2.54088
H         -0.61355       -1.51118       -1.13049
H         -1.64037       -2.53848       -2.20700
H          4.80281        0.32629       -1.50005
H          4.65378       -1.14300       -2.48216
H          4.88454       -1.28329       -0.72780
