49

S          3.41850       -1.25088       -0.74920
B          3.39029        0.17502        0.55168
C          3.75702        1.64418        0.02588
C          4.47668        1.89183       -1.16067
C          4.84393        3.18117       -1.54447
C          4.49996        4.30654       -0.76522
C          3.73580        4.07132        0.39599
C          3.37023        2.77797        0.77028
Si         5.34636        5.93882       -1.08065
C          7.18873        5.65835       -0.64404
C          7.32804        4.82095        0.63391
C          8.72237        4.62364        1.21337
C          9.60725        3.43182        0.68023
C         10.13087        3.38014       -0.80826
C         11.05853        4.51001       -1.40785
C         12.46288        4.85335       -0.76303
C         13.54848        3.71974       -0.63718
F         13.72291        3.07820       -1.80758
F         14.72039        4.30105       -0.29401
F         13.23310        2.82710        0.31033
F         13.00386        5.80804       -1.57652
F         12.28656        5.39570        0.46340
F         11.30280        4.13470       -2.69711
F         10.36982        5.67857       -1.44197
F         10.82612        2.21206       -0.93092
F          9.05726        3.30714       -1.63902
F         10.71402        3.34108        1.47890
F          8.88431        2.29213        0.83280
F          9.48136        5.77314        1.14504
F          8.59651        4.33324        2.55741
C          5.26077        6.49331       -2.88694
C          4.66892        7.32058        0.02158
I          5.10970       -0.42014        2.04968
H          2.34240       -0.81986       -1.45657
H          2.39679        0.15248        1.24702
H          4.76207        1.03425       -1.77587
H          5.43311        3.31130       -2.45923
H          3.43754        4.91060        1.03201
H          2.79524        2.62752        1.68839
H          7.69777        6.62843       -0.53610
H          7.64656        5.15128       -1.50319
H          6.87503        3.82686        0.50553
H          6.77075        5.29114        1.45964
H          5.61741        5.70125       -3.56021
H          5.87878        7.38719       -3.05780
H          4.22611        6.73246       -3.17042
H          4.80493        7.09785        1.08906
H          3.59459        7.47443       -0.15272
H          5.18756        8.26642       -0.19306
