25

C          1.13126       -0.43919        0.84328
C          2.46460       -0.21828        0.12093
C          2.79397       -1.30118       -0.92217
C          4.11966       -1.06183       -1.66932
Ta         4.57602       -2.34046       -3.39722
C          4.82139       -1.53073       -5.44239
C          4.10765       -0.19872       -5.70486
I          3.94413       -4.88022       -2.39784
H          0.93260        0.34568        1.59042
H          1.11758       -1.40840        1.36549
H          0.29166       -0.44091        0.13097
H          3.28395       -0.17259        0.85927
H          2.45490        0.76658       -0.37770
H          1.95902       -1.36015       -1.64276
H          2.81873       -2.28482       -0.42132
H          4.96694       -1.04214       -0.95925
H          4.10913       -0.05092       -2.13049
H          2.92380       -2.25317       -4.16010
H          6.09263       -3.21937       -3.80959
H          5.93366       -1.18363       -3.27960
H          4.38406       -2.32191       -6.08528
H          5.88644       -1.44306       -5.70245
H          3.03110       -0.27460       -5.48282
H          4.20806        0.14714       -6.75140
H          4.51705        0.60209       -5.06671
