29

C          1.36617       -0.05053       -0.92687
C          2.57740       -0.07751        0.01110
C          3.18758        1.30613        0.26590
C          4.40757        1.29342        1.19768
B          5.09342        2.76445        1.47161
C          4.37083        3.45756        2.77573
C          4.67753        4.92024        3.24829
C          4.55700        6.06624        2.18815
F          3.34967        6.06910        1.58443
F          4.69615        7.27059        2.81736
F          5.50971        5.99868        1.24613
F          3.81005        5.27186        4.26200
F          5.93811        4.99816        3.76435
F          2.97810        3.47051        2.57979
F          4.54788        2.71633        3.95368
C          6.70934        2.59179        1.62758
F          7.26982        1.98534        0.50628
F          7.44275        3.75804        1.76964
F          7.12817        1.79361        2.68379
H          0.94973       -1.05588       -1.09615
H          1.63650        0.36911       -1.90871
H          0.56232        0.57898       -0.51427
H          3.35330       -0.74363       -0.40562
H          2.28482       -0.52507        0.97701
H          2.40833        1.96924        0.67684
H          3.47960        1.75313       -0.70155
H          5.16664        0.62773        0.75010
H          4.12474        0.81001        2.15072
H          4.92806        3.51349        0.51697
