54

C          9.25695       -3.18085        2.11589
C          8.25671       -2.53523        1.15305
C          8.79246       -1.27259        0.46977
C          7.79214       -0.61590       -0.49189
C          8.31381        0.64819       -1.19247
Al         7.03568        1.47829       -2.48553
S          5.29905        2.53370       -1.06726
O          5.63210        2.47566        0.37180
O          4.77650        3.81608       -1.59359
C          3.73262        1.39754       -1.16405
F          4.02829        0.12133       -0.80493
F          2.77237        1.85153       -0.32343
F          3.20823        1.36377       -2.41217
C          7.81282        2.97927       -3.58448
C          9.06286        2.76956       -4.20818
C          9.65829        3.71938       -5.03915
C          9.00991        4.94252       -5.26796
C          7.77264        5.19046       -4.65687
C          7.19129        4.22159       -3.83501
C          9.65849        5.97448       -6.14414
C          9.55531        5.77024       -7.70571
C          8.14635        5.76108       -8.41274
C          7.22912        7.05476       -8.45771
C          7.82630        8.38094       -9.06126
C          6.74264        9.45659       -9.45488
F          5.88956        9.68600       -8.44059
F          7.37699       10.61194       -9.74932
F          6.04276        9.07780      -10.53878
F          8.64598        8.96042       -8.15257
F          8.53256        8.10881      -10.19038
F          6.16057        6.70265       -9.23478
F          6.77073        7.32162       -7.21265
F          8.37658        5.40810       -9.71217
F          7.38203        4.79498       -7.84582
F         10.30671        6.72735       -8.33077
F         10.10946        4.55866       -7.99975
F          9.18304        7.24078       -5.88866
F         11.02401        6.01519       -5.92057
H          8.84356       -4.08159        2.59382
H          9.54404       -2.48089        2.91543
H         10.17932       -3.47480        1.59140
H          7.33072       -2.28370        1.69711
H          7.96270       -3.26716        0.38107
H          9.71846       -1.52001       -0.08158
H          9.08616       -0.53685        1.23978
H          6.87536       -0.37072        0.07128
H          7.48529       -1.36243       -1.24669
H          9.24870        0.40958       -1.73672
H          8.59717        1.40222       -0.43708
H          6.12633        0.46120       -3.35421
H          9.60338        1.83209       -4.04167
H         10.62898        3.52227       -5.49643
H          7.26873        6.14459       -4.81488
H          6.23133        4.44485       -3.36279
