47

N          0.33185        0.37844       -3.54032
C          1.52848       -0.45529       -3.32921
In         2.78121        0.20943       -1.62319
S          1.93276       -1.02958        0.66557
O          3.07338       -1.41772        1.53038
O          0.80830       -0.32780        1.31631
C          1.05876       -2.76162        0.25592
C          1.98879       -3.93006       -0.14528
F          2.73166       -4.35300        0.89300
F          1.27283       -5.00394       -0.59670
F          2.81613       -3.55132       -1.14610
F          0.33559       -3.15179        1.34094
F          0.19326       -2.54512       -0.78224
C          4.81791       -0.66163       -1.81412
C          5.38883       -0.79229       -3.09555
C          6.65983       -1.33462       -3.29373
C          7.40780       -1.76882       -2.18926
C          6.86141       -1.66219       -0.90216
C          5.58534       -1.11919       -0.72614
C          8.77108       -2.36063       -2.40250
C          9.93417       -1.37240       -2.80355
C         10.30070       -0.16440       -1.86070
C         10.89039       -0.39952       -0.40881
C         12.20909       -1.24796       -0.26244
C         12.95006       -1.05616        1.11610
F         12.10771       -1.22061        2.15174
F         13.92622       -1.98446        1.20639
F         13.52073        0.15844        1.20418
F         11.91208       -2.56413       -0.37316
F         13.09879       -0.90858       -1.23255
F         11.15894        0.85222        0.07120
F          9.93651       -0.95366        0.37503
F         11.22184        0.58326       -2.53795
F          9.19332        0.59857       -1.68353
F         11.08119       -2.09091       -2.99950
F          9.60128       -0.80076       -3.99740
F          9.21514       -3.04719       -1.29722
F          8.75346       -3.26959       -3.44807
H         -0.10476        0.18207       -4.44446
H          0.56916        1.36983       -3.54164
H          2.20284       -0.51397       -4.20858
H          1.21261       -1.48469       -3.10677
H          2.65594        1.85692       -1.03765
H          4.82778       -0.47533       -3.98013
H          7.06353       -1.43580       -4.30227
H          7.42586       -2.01728       -0.03955
H          5.17092       -1.07873        0.28416
