27

Cl         3.48675       -1.77480       -1.54174
Ta         3.81351        0.05710       -0.11061
C          4.83020       -0.74900        1.65797
C          6.21178       -0.44388        1.61557
C          7.10419       -0.87245        2.60504
C          6.64478       -1.66351        3.66116
C          5.29595       -2.01533        3.71475
C          4.39595       -1.55340        2.74243
C          2.96127       -1.97971        2.91863
O          2.63849       -2.93251        3.61445
O          2.02431       -1.25553        2.28153
C          5.26202        1.19938       -1.30497
O          6.40792        0.30238       -1.72781
C          7.39419        0.85429       -2.41257
F          7.00901        1.42492       -3.60381
F          8.06113        1.85680       -1.73552
F          8.32246       -0.09297       -2.71175
H          2.96283        0.75887        1.30762
H          3.40842        1.78088       -0.24121
H          2.09925        0.28978       -0.38663
H          6.62236        0.13486        0.78238
H          8.16050       -0.60044        2.53908
H          7.33474       -2.01172        4.43276
H          4.90767       -2.65384        4.51022
H          2.42441       -0.40525        1.87390
H          5.70717        2.06029       -0.78452
H          4.78565        1.56504       -2.22887
