60

S          5.28170       -2.86413        2.73594
C          5.11733       -1.03385        2.83245
C          4.87742       -0.47699        1.42973
C          4.56039        1.02039        1.46448
Ta         5.96547        2.64636        1.92359
C          4.25787        3.43915        3.25511
C          3.56613        2.61105        4.17266
C          2.71601        3.09901        5.16799
C          2.50233        4.48163        5.28372
C          3.16136        5.34600        4.39546
C          4.00756        4.82392        3.41351
C          1.54282        5.00912        6.30807
C          2.02394        5.07421        7.80957
C          3.26095        5.96543        8.20915
C          3.22486        7.54565        8.07400
C          2.07510        8.34090        8.79928
C          2.36543        9.88199        8.96988
F          2.74075       10.44244        7.80552
F          1.23150       10.48560        9.38702
F          3.31943       10.10702        9.89031
F          0.93071        8.23250        8.08375
F          1.86997        7.84396       10.04735
F          4.40879        7.97417        8.60762
F          3.21276        7.88223        6.76243
F          3.51160        5.69993        9.52514
F          4.33692        5.56570        7.48721
F          0.97819        5.47953        8.59525
F          2.35797        3.80938        8.19248
F          1.10132        6.27684        5.99475
F          0.41334        4.20848        6.37783
C          7.23674        3.29857        3.54066
C          7.18999        3.17623        5.06005
C          7.11120        1.71280        5.52675
C          7.26871        1.56341        7.02629
C          7.05467        0.11606        7.56768
F          7.91008       -0.75026        6.97404
F          7.26268        0.05510        8.90236
F          5.79383       -0.30740        7.32351
F          8.53636        1.93519        7.43350
F          6.38358        2.35924        7.71577
H          5.58608       -3.07896        4.03748
H          6.04382       -0.60791        3.24191
H          4.27818       -0.79450        3.50109
H          4.05419       -1.05080        0.96096
H          5.78295       -0.64780        0.82917
H          3.54210        1.18516        1.85398
H          4.54151        1.40345        0.41085
H          6.93357        3.08888        0.47859
H          7.03561        1.21189        1.51259
H          5.24168        3.96099        0.95289
H          3.67553        1.52294        4.10494
H          2.20051        2.40978        5.83970
H          2.99029        6.42178        4.45730
H          4.48122        5.52877        2.72395
H          7.18507        4.37584        3.25479
H          8.20232        2.92687        3.12722
H          6.30374        3.70974        5.43395
H          8.06796        3.65000        5.53222
H          7.89803        1.10790        5.05180
H          6.14317        1.27726        5.23839
