29

C          4.91073        2.52600        2.18793
S          4.41704        1.05806        1.23348
C          4.98578        1.51412       -0.47736
C          4.73399        0.39449       -1.46380
In         5.55016        0.89291       -3.52145
C          4.16748        2.35417       -4.52282
C          2.81270        2.49844       -4.17096
C          1.96995        3.43064       -4.79324
C          2.44832        4.27078       -5.80767
C          3.80182        4.15504       -6.16208
C          4.63328        3.22197       -5.53215
C          1.53889        5.25162       -6.51015
O          7.27922        2.07024       -3.17667
H          4.64058        2.34398        3.23725
H          4.38638        3.42901        1.84250
H          5.99597        2.69399        2.12880
H          6.05737        1.75612       -0.40790
H          4.44726        2.43390       -0.75624
H          3.65694        0.17574       -1.54371
H          5.23446       -0.52991       -1.13674
H          6.05626       -0.50818       -4.47618
H          2.38917        1.87088       -3.37907
H          0.92153        3.51094       -4.48463
H          4.20824        4.80825       -6.94280
H          5.68496        3.17653       -5.83402
H          0.59212        5.37831       -5.96574
H          1.28946        4.91327       -7.52972
H          2.00820        6.24267       -6.60861
H          6.97310        2.97359       -3.00479
