50

C          1.48736       -0.63593       -0.08954
C          2.98649       -0.38844        0.10741
C          3.28768        0.77428        1.05956
C          4.77991        1.05356        1.27013
C          5.04526        2.28091        2.15860
C          6.51071        2.57948        2.40444
Sb         6.84696        4.39815        3.70807
S          6.63759        2.52823        5.91529
O          6.99557        1.13117        5.50790
O          7.31389        3.02673        7.15381
C          4.86325        2.39506        6.40601
C          9.03572        3.80709        3.83280
C          9.80629        4.53775        4.91931
C         11.30628        4.19963        4.94404
C         12.07734        4.98150        6.00800
N         13.50959        4.70741        5.91839
C         14.43456        5.37629        6.69600
N         14.22035        6.18836        7.67679
N         15.76414        5.10228        6.31534
H          1.29566       -1.46424       -0.78763
H          0.98729        0.25940       -0.49028
H          0.99673       -0.88367        0.86409
H          3.45741       -0.18701       -0.87046
H          3.46559       -1.30684        0.48771
H          2.81616        0.57372        2.03817
H          2.80014        1.68855        0.67504
H          5.26827        1.20127        0.28972
H          5.26398        0.16940        1.71999
H          4.53975        2.12489        3.12834
H          4.54559        3.15806        1.70658
H          7.06051        2.79265        1.47308
H          7.00777        1.75881        2.93998
H          7.01650        5.54321        2.37989
H          5.07063        4.61341        3.85803
H          7.09774        5.61959        4.97773
H          4.29654        1.97598        5.56564
H          4.49185        3.39328        6.66774
H          4.83505        1.72349        7.27471
H          9.44718        3.99559        2.82649
H          9.02102        2.72126        4.00638
H          9.36412        4.29649        5.90052
H          9.69339        5.63090        4.79486
H         11.74464        4.41827        3.95173
H         11.44077        3.11877        5.11520
H         11.72132        4.69663        7.01136
H         11.87663        6.06412        5.88649
H         13.83458        4.45999        4.98760
H         13.22231        6.39361        7.76980
H         15.94441        4.11331        6.15458
H         16.40054        5.48332        7.01145
