43

C          0.81438       -0.06649       -0.45560
O          2.20869        0.00856       -0.24586
C          2.91544        0.35389       -1.43578
C          4.40677        0.36298       -1.13059
O          5.07116        0.74496       -2.31519
C          6.50575        0.66042       -2.19401
C          7.14591        0.98388       -3.52489
P          9.07095        0.85484       -3.46406
C          9.01405       -1.30575       -3.56273
C          8.12617       -2.19621       -4.47097
F          8.25715       -1.88045       -5.78096
F          8.42582       -3.52982       -4.36059
F          6.81191       -2.07567       -4.14959
F         10.31352       -1.77017       -3.77295
F          8.69797       -1.74032       -2.27294
C          9.27200        1.21159       -5.42357
C         10.20312        0.36790       -6.04934
C         10.49234        0.42526       -7.41262
C          9.84440        1.36403       -8.21911
C          8.94955        2.24935       -7.62901
C          8.67483        2.20308       -6.24630
C          7.80985        3.35406       -5.79390
O          6.97039        3.87851       -6.50677
O          8.07305        3.88939       -4.57734
H          0.35330       -0.33369        0.50455
H          0.55295       -0.83767       -1.20667
H          0.39695        0.90130       -0.79718
H          2.60065        1.35142       -1.79968
H          2.70455       -0.37835       -2.23907
H          4.72753       -0.64495       -0.79749
H          4.61587        1.06762       -0.29859
H          6.77404       -0.35309       -1.84780
H          6.84755        1.37349       -1.41659
H          6.86257        2.00453       -3.80876
H          6.77167        0.31091       -4.30633
H         10.52254        0.66177       -3.47919
H          9.27067        2.31042       -3.16253
H          9.04557        0.59991       -2.01760
H         10.72754       -0.36652       -5.43677
H         11.21911       -0.26726       -7.84463
H         10.04857        1.41993       -9.29036
H          8.44874        3.01875       -8.21843
H          8.68744        3.29015       -4.06360
