81

O          3.54519        0.35264        2.18900
C          3.73385        1.13045        1.05898
O          3.21675        2.22123        1.01148
C          4.65377        0.52821       -0.00688
C          4.18536        0.58609       -1.44253
C          3.13039       -0.29446       -1.83745
C          2.42081       -0.18263       -3.08323
C          1.36891       -1.01526       -3.42052
C          0.90147       -2.05110       -2.56707
C          1.57230       -2.15713       -1.32738
C          2.62090       -1.32042       -0.97139
Si        -0.51666       -3.14549       -3.03783
C         -0.03965       -4.24458       -4.53500
C         -1.14362       -5.19070       -5.01896
C         -0.76746       -6.03313       -6.21826
F          0.30477       -6.84177       -5.98042
F         -1.79573       -6.85961       -6.59590
F         -0.45764       -5.28264       -7.31335
C         -1.00478       -4.28865       -1.60483
C         -2.04526       -2.14041       -3.54956
C          4.87392        1.50299       -2.31334
C          5.10116        1.25438       -3.70466
C          5.81615        2.13023       -4.50691
C          6.35767        3.34748       -4.01693
C          6.14711        3.59696       -2.63998
C          5.44837        2.71864       -1.82232
Si         7.25205        4.52733       -5.13840
C          6.26183        4.73481       -6.76716
C          4.78245        5.05100       -6.51854
C          3.93467        5.38039       -7.73464
C          3.72366        4.30008       -8.85944
C          3.22788        2.85237       -8.48075
C          1.83494        2.61218       -7.76691
C          0.52687        3.08270       -8.50549
C         -0.80267        2.46859       -7.92075
F         -0.87682        2.64471       -6.59169
F         -1.84840        3.10154       -8.49736
F         -0.90241        1.15798       -8.19913
F          0.41828        4.43001       -8.41432
F          0.58086        2.73176       -9.81822
F          1.74691        1.26129       -7.60590
F          1.87033        3.18824       -6.54187
F          3.21984        2.13379       -9.63838
F          4.15530        2.29836       -7.65311
F          2.85109        4.80042       -9.78322
F          4.91960        4.10638       -9.49057
F          2.67378        5.76170       -7.32487
F          4.46168        6.46793       -8.40596
C          7.44568        6.23091       -4.32800
C          8.97394        3.91444       -5.64870
H          3.99368       -0.49779        2.03521
H          4.90012       -0.51606        0.27869
H          5.59930        1.08742        0.08781
H          2.68537        0.62062       -3.77002
H          0.87198       -0.83979       -4.38152
H          1.25606       -2.91486       -0.60352
H          3.05699       -1.46241        0.01845
H          0.85518       -4.82072       -4.25205
H          0.27192       -3.57691       -5.35402
H         -2.04965       -4.63696       -5.30923
H         -1.43896       -5.89907       -4.22987
H         -0.17667       -4.95010       -1.31281
H         -1.86464       -4.92147       -1.87004
H         -1.28897       -3.70005       -0.72097
H         -1.81079       -1.46239       -4.38314
H         -2.38457       -1.51908       -2.70856
H         -2.88780       -2.77774       -3.85894
H          4.75126        0.31604       -4.13583
H          5.97470        1.84737       -5.55344
H          6.52078        4.52457       -2.19487
H          5.26931        3.00318       -0.78374
H          6.36569        3.80377       -7.34417
H          6.72956        5.52918       -7.37038
H          4.67751        5.94692       -5.88482
H          4.29805        4.23301       -5.96689
H          6.47633        6.66453       -4.04419
H          7.94665        6.93259       -5.01129
H          8.05460        6.16447       -3.41492
H          8.91122        2.91875       -6.11099
H          9.62595        3.82742       -4.76773
H          9.45772        4.59402       -6.36707
