24

C          5.66630        0.36283       -1.95587
S          4.83709       -1.08357       -1.20261
O          3.39910       -0.75123       -1.32116
O          5.31718       -2.22024       -1.99961
N          5.36485       -1.21212        0.27005
C          4.79314       -0.30973        1.24951
C          5.29843       -0.73160        2.64172
C          6.83518       -0.84727        2.70127
C          7.54357        0.40810        3.14101
C          9.10087        0.31741        3.10173
F          9.54802       -0.69716        3.88527
F          9.54397        0.09888        1.84577
F          9.67553        1.46000        3.54988
F          7.21347        1.50598        2.38090
F          7.22627        0.73867        4.45371
H          5.27847        0.49420       -2.97373
H          6.74507        0.16866       -1.97472
H          5.44674        1.25574       -1.35481
H          3.68539       -0.33425        1.26443
H          5.07048        0.75724        1.08275
H          4.89098       -1.73113        2.85468
H          4.92073       -0.04930        3.42017
H          7.17053       -1.12833        1.68745
H          7.15472       -1.63860        3.39485
