28

C          2.35509        1.93504       -1.08231
Ga         3.09589        0.19223       -0.42330
S          0.93125       -1.01020        0.01050
O          0.31485       -0.64361        1.30758
O          0.03151       -1.06859       -1.16414
C          1.32617       -2.89633        0.29203
F          2.20134       -3.07697        1.32226
F          0.19858       -3.58931        0.59343
F          1.87852       -3.47317       -0.80654
C          4.02382        0.14442        1.36898
C          5.55327        0.14564        1.25545
C          6.26954        0.06553        2.61291
C          7.79880        0.09678        2.55601
N          8.33824       -1.08403        1.85880
H          1.69149        1.77680       -1.94286
H          3.18298        2.58638       -1.40376
H          1.79135        2.45975       -0.29867
H          3.74092       -0.76121       -1.52301
H          3.69140       -0.76140        1.90144
H          3.68333        1.00046        1.97596
H          5.89972        1.06054        0.73882
H          5.88750       -0.69200        0.62321
H          5.94847       -0.85478        3.13644
H          5.93139        0.90117        3.24945
H          8.19271        0.21047        3.58787
H          8.12304        0.98928        1.99330
H          8.00286       -1.93441        2.31619
H          9.35680       -1.10270        1.92078
