31

C          0.88556       -0.00141       -0.12583
C          2.41739       -0.00013       -0.09041
C          3.00535       -0.38152        1.27342
C          4.53685       -0.41467        1.30565
C          5.13195       -0.77871        2.66874
C          6.66304       -0.90002        2.67376
N          7.16966       -1.21100        3.95304
C          8.56994       -1.33353        3.91730
C          9.08986       -1.78728        5.28741
S         10.87755       -1.41381        5.44546
C         11.29551       -2.45192        6.88037
H          0.49615        0.28020       -1.11595
H          0.47040        0.70695        0.60810
H          0.48314       -0.99647        0.11959
H          2.79126        0.99758       -0.37913
H          2.80234       -0.69582       -0.85623
H          2.61393       -1.37115        1.57263
H          2.63707        0.32719        2.03783
H          4.92765        0.56913        0.98743
H          4.89620       -1.13726        0.54988
H          4.71333       -1.73862        3.02056
H          4.84505       -0.02575        3.42389
H          7.07860        0.07160        2.24303
H          6.93990       -1.66310        1.87075
H          9.12955       -0.37206        3.64121
H          8.96140       -2.07276        3.14841
H          8.93867       -2.86913        5.42605
H          8.53200       -1.24929        6.06876
H         12.36720       -2.31806        7.08332
H         11.10563       -3.51718        6.67556
H         10.72926       -2.15321        7.77557
