12

P          0.89672        0.33896       -0.43537
S          0.29865       -1.99672        0.74655
O          0.51186        1.08020        1.10919
C          2.72449        0.11427        0.05336
H         -0.51940        0.19027       -0.68990
H          1.02639        1.63081       -1.06388
H          1.16642       -0.37731       -1.68888
H          1.45515       -2.37699        1.34127
H          0.25316        0.29453        1.63461
H          2.85957        0.03722        1.13762
H          3.26314        1.00774       -0.30754
H          3.12197       -0.77887       -0.44503
