81

C          4.84892        1.31562        4.35187
C          4.75081        0.32973        3.18461
C          5.57547       -0.94460        3.39235
C          5.44688       -1.94628        2.24265
C          6.26304       -3.22650        2.46601
C          6.12830       -4.26794        1.32954
C          7.26363       -4.29765        0.25435
C          8.63910       -4.72344        0.77797
C          9.76366       -4.30220        0.03389
C         11.06901       -4.62732        0.38812
C         11.31594       -5.38358        1.53894
C         10.23518       -5.82901        2.28977
C          8.90778       -5.52785        1.90709
C          7.88961       -6.23062        2.76754
O          7.37573       -7.29708        2.51464
O          7.66953       -5.64703        3.99164
C          6.82225       -5.22190       -0.87904
C          5.64065       -4.95463       -1.60467
C          5.21917       -5.78772       -2.63945
C          5.93537       -6.94569       -3.00552
C          7.10661       -7.21694       -2.27228
C          7.53737       -6.38031       -1.24054
Si         5.34657       -8.10020       -4.35524
C          6.81147       -8.60015       -5.47493
C          7.51426       -7.40951       -6.14155
C          8.59185       -7.84096       -7.12043
C          9.28784       -6.70979       -7.96089
C         10.03568       -5.52517       -7.24066
C         11.29144       -5.78492       -6.31072
C         12.53985       -6.51383       -6.93390
C         13.85926       -6.39086       -6.08042
F         13.65245       -6.77079       -4.80833
F         14.79090       -7.20289       -6.62571
F         14.34025       -5.13614       -6.09329
F         12.27257       -7.83561       -7.06194
F         12.81500       -5.99628       -8.16080
F         11.70011       -4.54668       -5.91121
F         10.88715       -6.47400       -5.21740
F         10.43226       -4.66903       -8.22312
F          9.13498       -4.87296       -6.45695
F         10.17438       -7.28352       -8.82484
F          8.31236       -6.10656       -8.70706
F          9.58331       -8.55798       -6.49343
F          8.05892       -8.68048       -8.08094
C          4.63744       -9.70571       -3.64461
C          4.02691       -7.27119       -5.43119
C          7.35118       -2.70920       -0.22107
O          6.47357       -2.33568       -1.02738
O          8.23076       -2.04462        0.37411
H          4.24998        2.22113        4.17389
H          5.89022        1.63175        4.51692
H          4.49206        0.85865        5.28829
H          5.08080        0.82042        2.25444
H          3.69409        0.05474        3.02402
H          5.26867       -1.42375        4.34149
H          6.63826       -0.67141        3.51521
H          5.75978       -1.47084        1.30127
H          4.38293       -2.22024        2.11865
H          5.93108       -3.68972        3.41054
H          7.32224       -2.94150        2.58692
H          5.19584       -4.06231        0.78518
H          5.99700       -5.27697        1.74661
H          9.59084       -3.68558       -0.84591
H         11.89871       -4.27310       -0.22655
H         12.33470       -5.63159        1.84250
H         10.40073       -6.44861        3.17429
H          8.08589       -4.76527        3.97416
H          5.08582       -4.04652       -1.37830
H          4.30490       -5.51989       -3.17681
H          7.70241       -8.10824       -2.49459
H          8.44522       -6.64694       -0.69989
H          6.42913       -9.29401       -6.24030
H          7.53623       -9.16955       -4.87209
H          7.97201       -6.76221       -5.38043
H          6.80138       -6.78687       -6.70269
H          5.37744      -10.21421       -3.01056
H          4.32960      -10.40200       -4.43902
H          3.75976       -9.49181       -3.01826
H          4.38479       -6.32811       -5.86800
H          3.12819       -7.03804       -4.84258
H          3.72235       -7.93448       -6.25417
