33

N          0.80026        3.98753       -2.14266
C          2.17310        4.21676       -2.40967
N          2.65762        4.97436       -3.33643
N          2.99026        3.49816       -1.56779
C          4.44077        3.47080       -1.74678
C          5.08422        2.60929       -0.66220
C          6.61738        2.52888       -0.76090
C          7.35715        3.84021       -0.44774
Al         9.34410        3.71350       -0.55520
C         10.30008        5.54694       -0.34636
C          9.91699        6.54755        0.76309
F         10.20461        6.04627        1.98409
F         10.56171        7.74562        0.65461
F          8.58289        6.81313        0.72399
F         11.68697        5.42987       -0.27662
F         10.04180        6.23572       -1.55149
S          9.86988        2.29390        1.34431
O          9.65245        2.85489        2.67618
O          9.36551        0.94104        1.09694
F         11.54720        2.10132        1.27133
H          0.19951        4.66229       -2.60686
H          0.58570        3.93990       -1.14774
H          1.91438        5.51481       -3.78779
H          2.58744        2.63809       -1.20698
H          4.80689        4.50556       -1.70268
H          4.70455        3.08678       -2.74914
H          4.66258        1.58784       -0.72770
H          4.80394        3.00596        0.32869
H          6.88922        2.17476       -1.77130
H          6.96174        1.74057       -0.07334
H          7.06635        4.20284        0.55373
H          7.05525        4.63719       -1.15109
H         10.03056        2.96384       -1.79652
