43

C          0.62315        2.06107        2.06239
O          1.96407        1.93906        2.48360
C          2.37526        3.03892        3.29194
C          3.84689        2.92220        3.63875
O          4.63695        3.24527        2.51872
C          6.06254        3.19008        2.82016
C          6.89281        3.51232        1.61890
Sb         9.12228        3.47902        2.11319
C          9.62231        3.27950       -0.09471
C          8.79315        4.11556       -1.06547
C          9.27835        4.09769       -2.52966
C          9.23659        2.71052       -3.17112
N          9.61673        2.77222       -4.58024
C          9.68914        1.63884       -5.36685
N          9.58481        0.40369       -5.00597
N          9.90239        1.93502       -6.72965
F          9.13941        5.53821        1.77335
H          0.39666        1.18875        1.43461
H          0.46090        2.98159        1.46779
H         -0.08021        2.07690        2.92049
H          1.77745        3.05757        4.22800
H          2.19956        3.99143        2.75405
H          4.05858        1.89253        3.99866
H          4.05692        3.61245        4.48568
H          6.29305        2.17397        3.20128
H          6.26885        3.90246        3.64449
H          6.68915        4.52206        1.23947
H          6.74306        2.77286        0.81889
H         10.86773        3.59579        2.45711
H          8.73782        3.86588        3.80732
H          9.09624        1.71617        2.39896
H          9.55816        2.19954       -0.30624
H         10.68281        3.57774       -0.12668
H          8.78682        5.15893       -0.71397
H          7.74052        3.78527       -1.04984
H         10.30867        4.48725       -2.58848
H          8.64441        4.77990       -3.12948
H          8.22281        2.27908       -3.05222
H          9.93671        2.04012       -2.65022
H          9.30997        3.61032       -5.06748
H          9.30629        0.33334       -4.02383
H         10.62491        2.63605       -6.88175
H         10.11156        1.07588       -7.23297
