44

C          3.86404       -2.87657       -1.66065
C          4.71811       -1.77335       -1.02962
C          4.63148       -0.43363       -1.76839
C          5.49199        0.67212       -1.14796
C          5.40628        2.02332       -1.87779
C          6.28639        3.12219       -1.27508
Ta         7.21594        4.97781       -2.14328
C          6.03240        6.69883       -1.55063
C          4.98210        6.17555       -2.53997
C          3.67091        5.82800       -1.86756
O          2.64358        6.46937       -1.98570
O          3.71358        4.73930       -1.05550
C          9.30485        4.78314       -2.85147
C          9.68092        4.71714       -4.33758
S         10.13742        6.31617       -5.09868
C         11.73329        6.61793       -4.28877
H          3.95162       -3.82647       -1.11256
H          4.16365       -3.06289       -2.70311
H          2.79976       -2.59559       -1.67232
H          5.77211       -2.09911       -0.99466
H          4.41381       -1.62803        0.02099
H          3.57745       -0.10344       -1.79829
H          4.93118       -0.58039       -2.82164
H          6.54685        0.34332       -1.12627
H          5.19921        0.81192       -0.09159
H          4.34606        2.33566       -1.89532
H          5.69436        1.89248       -2.93369
H          7.34964        2.76451       -1.29587
H          6.09793        3.21421       -0.18342
H          8.23156        4.97959       -0.59132
H          7.26479        5.93685       -3.66359
H          6.78931        3.92522       -3.56186
H          6.36194        7.71861       -1.76738
H          5.71475        6.61226       -0.50078
H          5.33854        5.21608       -3.09488
H          4.80329        6.87727       -3.35882
H          4.61284        4.32082       -1.13176
H          9.66963        3.86764       -2.34104
H          9.84821        5.60193       -2.34419
H          8.83023        4.37690       -4.94542
H         10.52450        4.02953       -4.53479
H         12.10525        7.58202       -4.66069
H         12.46489        5.83358       -4.53359
H         11.62005        6.68094       -3.19783
