16

O          1.03520        0.21591        0.05910
C          2.43152        0.00022        0.01712
O          2.95256       -0.42269        1.02950
C          3.05675        0.35997       -1.26936
C          2.56363        1.48773       -1.95870
C          3.11116        1.96121       -3.14814
C          4.22099        1.26141       -3.68144
C          4.73177        0.15046       -3.04853
C          4.18878       -0.40598       -1.81447
N          4.62782       -1.51642       -1.24815
H          0.77094        0.40888       -0.85765
H          1.74982        2.05994       -1.50005
H          2.72160        2.86003       -3.62715
H          4.68707        1.61337       -4.60793
H          5.59190       -0.37374       -3.47906
H          5.39468       -1.87918       -1.83137
