50

C          0.60115        1.29945        3.38431
O          1.94768        1.03880        3.71241
C          2.43259        1.89967        4.74025
C          3.93421        1.74641        4.88970
O          4.58839        2.39053        3.82273
C          6.04378        2.26214        3.90332
C          6.72682        2.93496        2.75892
Sb         9.03433        2.67629        2.84455
C          9.23685        3.75951        0.82494
C          9.39676        2.84264       -0.38624
C          8.05390        2.24472       -0.82784
C         10.07082        3.55581       -1.57382
C          9.29571        4.64050        4.04687
C          9.18412        6.03305        3.40295
C          7.79211        6.67473        3.49123
C          7.67644        7.98215        2.70987
N          6.36489        8.62613        2.93492
H          0.32014        0.60506        2.58102
H          0.46181        2.33763        3.02400
H         -0.07722        1.14040        4.24779
H          1.93291        1.65419        5.70142
H          2.19950        2.95386        4.49221
H          4.19076        0.66617        4.92941
H          4.23269        2.18713        5.86734
H          6.28893        1.18098        3.92899
H          6.36826        2.69039        4.87377
H          6.52252        4.01479        2.74565
H          6.42265        2.49845        1.79730
H         10.83517        2.45227        2.83712
H          8.83489        1.08891        1.99892
H          8.91156        1.85318        4.44972
H         10.14296        4.37071        0.96546
H          8.37789        4.44042        0.69455
H         10.05299        1.99844       -0.09282
H          7.35214        3.04638       -1.11402
H          7.59710        1.66631       -0.01421
H          8.17539        1.57650       -1.69586
H          9.44884        4.39658       -1.92418
H         10.22363        2.87288       -2.42838
H         11.05001        3.96644       -1.28557
H         10.31244        4.47784        4.43798
H          8.60029        4.54274        4.89747
H          9.48596        5.99196        2.34257
H          9.89705        6.73656        3.87793
H          7.53623        6.86730        4.54698
H          7.03255        5.96880        3.11368
H          7.88068        7.77475        1.64012
H          8.45428        8.68786        3.04907
H          5.62298        7.96455        2.69480
H          6.24956        9.41849        2.30021
