30

N          0.78050        0.00890       -3.68287
C          2.07950        0.12174       -4.23924
N          2.42453       -0.19746       -5.44216
N          2.98927        0.60208       -3.32627
C          4.42073        0.67291       -3.61144
C          5.10662        1.61525       -2.62232
C          6.63845        1.66685       -2.75763
C          7.14016        2.15823       -4.11898
In         9.31527        2.48002       -4.17643
S         10.29683        0.12749       -3.14708
O         11.75548        0.05112       -2.92732
O          9.41955       -0.44036       -2.09765
C         10.03145       -1.14374       -4.59473
F          8.74446       -1.09748       -5.04318
F         10.83378       -0.87290       -5.65742
F         10.28435       -2.41189       -4.19832
Cl         9.83123        4.03447       -2.35681
H          0.06898       -0.13669       -4.39295
H          0.52959        0.78924       -3.07761
H          1.60018       -0.42252       -6.00614
H          2.75165        0.43365       -2.35317
H          4.52852        1.02473       -4.64504
H          4.88390       -0.33032       -3.57009
H          4.85541        1.29512       -1.59301
H          4.68374        2.62710       -2.74768
H          7.05794        0.67099       -2.54319
H          7.02422        2.32462       -1.96282
H          6.68924        3.13129       -4.37656
H          6.88726        1.45596       -4.92651
H         10.38004        2.77827       -5.52482
