22

C          1.06480        0.15229        0.02534
C          2.56151        0.05849       -0.29268
C          3.02235       -1.35537       -0.67612
C          4.51056       -1.48974       -0.96012
P          5.03671       -3.32117       -1.36880
O          4.57243       -3.12509       -3.08449
N          6.77187       -2.70404       -1.79561
H          0.75919        1.17534        0.29719
H          0.79862       -0.51020        0.86416
H          0.45779       -0.15985       -0.83899
H          3.14391        0.40477        0.57978
H          2.80770        0.75485       -1.11347
H          2.46134       -1.69419       -1.56562
H          2.74248       -2.05377        0.13556
H          5.09042       -1.16943       -0.07379
H          4.79540       -0.84490       -1.80710
H          3.67816       -3.82707       -1.12689
H          5.51974       -4.68653       -1.65447
H          5.36410       -3.53087        0.06999
H          5.39698       -2.78867       -3.47251
H          7.38905       -3.49189       -1.57496
H          7.02865       -1.96319       -1.13563
