19

C          1.06861       -0.02523       -0.08185
C          2.60171        0.02015       -0.06226
N          3.16455       -1.06937       -0.75716
C          4.57186       -1.01473       -0.72267
C          5.14141       -2.22000       -1.48228
S          6.97407       -2.23534       -1.46999
C          7.27830       -3.73564       -2.44581
H          0.62252        0.82491        0.46269
H          0.71629       -0.96431        0.37434
H          0.70682       -0.00998       -1.12253
H          2.92412        0.08438        1.03122
H          2.91515        1.03982       -0.46965
H          5.01966       -1.02559        0.32527
H          5.02157       -0.07455       -1.18290
H          4.79072       -2.18857       -2.52576
H          4.77229       -3.14707       -1.01650
H          8.36635       -3.86632       -2.52420
H          6.86017       -3.64774       -3.46011
H          6.85041       -4.62592       -1.96056
