36

N          7.52819       -0.84155        4.49276
C          6.73711        0.22847        4.00780
N          5.73597        0.75751        4.63469
N          7.06242        0.60948        2.73104
C          6.50522        1.80214        2.09787
C          6.68702        1.72640        0.58132
C          6.32937        3.02411       -0.15661
C          7.23123        4.23890        0.16048
B          8.80599        4.03961       -0.11555
S          9.91014        5.34346        0.80754
O          9.51297        5.31719        2.22125
O         11.33008        5.25536        0.47875
C          9.45986        7.15391        0.20441
C          8.49457        7.96749        1.11227
F          7.32853        7.32027        1.29982
F          9.05022        8.22747        2.30980
F          8.20471        9.16624        0.52793
F         10.61423        7.86417        0.11126
F          8.90109        7.06952       -1.03459
S          9.20129        3.92474       -2.01434
O          8.23823        4.61872       -2.85420
O         10.60396        3.95782       -2.37827
F          8.78286        2.31107       -2.20890
H          7.53952       -0.87515        5.50776
H          8.47891       -0.86879        4.12742
H          5.60480        0.30456        5.54304
H          7.97009        0.32292        2.38023
H          6.98583        2.70862        2.50412
H          5.44264        1.85214        2.37276
H          6.07409        0.89699        0.19251
H          7.73586        1.47064        0.35378
H          5.28121        3.28738        0.07305
H          6.36219        2.82218       -1.23744
H          7.11395        4.51617        1.22030
H          6.85323        5.09654       -0.41789
H          9.35246        3.06408        0.35561
