26

O          0.96361       -0.40680        0.27534
C          2.30421       -0.19299        0.02844
O          2.63639        0.28271       -1.03275
C          3.20852       -0.59632        1.16911
C          4.69522       -0.39822        0.87864
C          5.62357       -0.85268        2.02437
S          5.58500        0.60631        3.28308
O          6.55262        1.57460        2.74343
O          4.25595        1.09953        3.63217
C          6.44822        0.02434        4.94818
C          5.55406        0.12123        6.22938
F          5.20224        1.41048        6.44458
F          4.45851       -0.62835        6.18705
F          6.29875       -0.28000        7.30320
F          6.96619       -1.21076        4.83603
F          7.47943        0.89595        5.14608
C          5.09997       -2.19312        2.67112
O          4.47826       -2.02892        3.75038
O          5.30000       -3.20244        1.96747
O          6.95885       -0.92989        1.62125
H          0.87755       -0.79138        1.16585
H          3.01868       -1.65675        1.40725
H          2.91282       -0.03005        2.06703
H          4.90119        0.64583        0.59240
H          4.99303       -1.03234        0.03100
H          7.22498       -0.03594        1.32947
