45

C          5.20911       -1.72349        4.24439
C          6.51980       -1.29500        3.57932
C          7.05163        0.03412        4.12494
C          8.42619        0.45036        3.57977
C          8.51281        0.65192        2.05682
C          7.62160        1.76432        1.48036
Ga         8.09744        3.66623        1.97147
S          5.99939        4.24212        3.21331
O          4.78992        4.25486        2.36308
O          5.92525        3.44807        4.46153
C          5.99334        6.06267        4.00147
C          6.23276        7.31217        3.10099
C          5.24808        7.54327        1.89825
C          5.29387        8.99906        1.29635
F          6.55536        9.39167        1.03436
F          4.60030        9.01140        0.13398
F          4.72432        9.90078        2.12045
F          5.56361        6.69654        0.89125
F          3.96262        7.33003        2.28280
F          6.16574        8.43736        3.89817
F          7.49330        7.24003        2.59771
F          4.80402        6.21066        4.64891
F          6.98838        6.09747        4.94119
C          9.51027        3.87838        3.41710
O         10.18922        5.18410        3.27448
C         11.20268        5.41696        4.09899
F         12.25523        4.53562        3.95478
F         11.69501        6.65582        3.85127
F         10.87590        5.36908        5.43009
H          4.83718       -2.67703        3.84041
H          4.42600       -0.96582        4.09344
H          5.33850       -1.84707        5.33076
H          6.36519       -1.21750        2.49090
H          7.28133       -2.08282        3.72309
H          7.12634       -0.04095        5.22379
H          6.31896        0.83547        3.94033
H          9.17152       -0.31105        3.87413
H          8.72340        1.38210        4.08692
H          8.27917       -0.31004        1.56213
H          9.56828        0.85373        1.80293
H          6.56469        1.58817        1.73309
H          7.66863        1.73651        0.37953
H          8.14715        4.74644        0.82630
H         10.27577        3.09157        3.33104
H          9.06924        3.82857        4.42293
