44

Br         4.55197        2.35611       -0.22436
C          4.50033        0.41299       -0.02178
C          4.45730       -0.10531        1.26769
C          4.34550       -1.53648        1.50579
C          4.34802       -2.07959        2.77535
C          4.43501       -1.29701        3.96206
C          4.52062        0.10860        3.73935
C          4.52527        0.67968        2.48382
Si         4.50277       -2.04435        5.63664
C          6.31228       -2.43780        6.17046
C          6.46458       -3.14903        7.51910
C          7.89238       -3.42361        7.93356
F          8.63061       -2.28567        8.08061
F          7.95367       -4.07618        9.14247
F          8.56247       -4.21148        7.04396
C          3.79732       -0.88187        6.96778
C          3.55063       -3.69108        5.72499
C          4.40632       -0.38358       -1.29654
C          2.95138       -0.74644       -1.71893
C          2.05556        0.43969       -2.08910
C          5.20930        0.18672       -2.47841
H          4.24742       -2.21538        0.65672
H          4.26245       -3.16973        2.85416
H          4.57959        0.78568        4.59921
H          4.58492        1.76469        2.39353
H          6.86411       -1.48432        6.17932
H          6.76446       -3.04487        5.37058
H          5.95670       -4.12549        7.51450
H          6.02044       -2.56105        8.33716
H          4.31902        0.08640        6.96738
H          3.87978       -1.30714        7.98002
H          2.73399       -0.68305        6.77240
H          3.96297       -4.42963        5.02125
H          2.49675       -3.53339        5.45464
H          3.57789       -4.13575        6.73157
H          4.88488       -1.35267       -1.05692
H          2.49014       -1.29207       -0.88064
H          2.99704       -1.45496       -2.56909
H          1.97694        1.14404       -1.24994
H          1.04053        0.09997       -2.34733
H          2.44790        0.99745       -2.95294
H          4.82444        1.16374       -2.80087
H          5.16870       -0.50043       -3.33872
H          6.26132        0.33104       -2.19543
