35

C          3.74219       -2.86893       -2.27496
C          3.71010       -1.74651       -1.23424
C          4.41265       -2.12137        0.07946
C          4.33836       -1.01077        1.12749
In         5.32548       -1.39321        3.04272
S          3.67144       -2.78830        4.66951
O          4.21717       -3.75741        5.63368
O          2.82376       -1.69447        5.19381
C          2.28746       -3.81476        3.68289
C          2.70495       -5.23314        3.21624
C          1.75351       -5.93837        2.18368
F          0.48289       -5.96949        2.64077
F          1.76248       -5.31431        0.98961
F          2.15745       -7.21501        1.98732
F          3.93070       -5.15208        2.62066
F          2.78756       -6.05604        4.29307
F          1.19513       -3.91034        4.48271
F          1.94930       -3.06817        2.58230
S          7.63817       -2.67641        2.53084
O          8.08325       -2.09917        1.24066
O          8.59987       -2.68650        3.64795
C          7.47190       -4.55708        2.11864
F          6.59238       -4.75559        1.10375
F          8.66640       -5.06552        1.74167
F          7.03260       -5.25130        3.19008
H          3.23685       -2.57537       -3.20686
H          3.24438       -3.77319       -1.89341
H          4.77733       -3.14571       -2.52586
H          2.66346       -1.47237       -1.01636
H          4.18375       -0.83956       -1.64820
H          5.46519       -2.36804       -0.13381
H          3.95713       -3.04511        0.47162
H          3.29434       -0.76682        1.37734
H          4.80898       -0.08800        0.75162
H          5.92680       -0.33999        4.28635
