23

C          1.04345        0.01431       -0.11033
C          0.65865       -0.27941        1.33564
C         -0.87018       -0.13938        1.54962
C         -1.74661       -1.05087        0.67892
C          1.13524       -1.68155        1.76488
C          0.70651        1.44081       -0.55173
C          1.19573        2.55310        0.38598
O          0.50580        3.45485        0.84776
O          2.49811        2.42843        0.77751
O          2.56670        0.01006       -0.20073
H          1.13226        0.42737        2.07486
H         -1.15308        0.91054        1.37482
H         -1.08784       -0.33341        2.61517
H         -1.49888       -0.91491       -0.38182
H         -2.81643       -0.83579        0.83750
H         -1.58370       -2.11438        0.91321
H          0.80039       -2.44520        1.04306
H          0.75962       -1.94427        2.76931
H          2.23545       -1.72658        1.81925
H         -0.37703        1.57626       -0.67046
H          1.16387        1.60917       -1.54291
H          2.80536        1.51995        0.47614
H          2.83264       -0.89743       -0.00931
