32

I          5.70407        0.80350        2.17072
Nb         4.58680        0.68427       -0.29284
S          3.71554        2.58571       -1.50378
O          4.36562        3.78878       -2.03935
O          3.32687        1.47711       -2.44202
C          1.95019        3.30644       -1.08817
C          1.92254        4.30112        0.10459
F          2.60152        5.42937       -0.17328
F          0.64347        4.65403        0.40693
F          2.46365        3.73515        1.20551
F          1.51545        3.96398       -2.19916
F          1.07208        2.30914       -0.82064
C          5.38544       -0.91389       -1.57599
C          6.31789       -1.79111       -0.97838
C          6.88541       -2.85765       -1.68983
C          6.55423       -3.08601       -3.02775
C          5.64045       -2.21978       -3.63494
C          5.06771       -1.15647       -2.92700
C          5.23727       -2.43844       -5.06893
F          5.96737       -3.41620       -5.68462
F          3.92578       -2.81134       -5.18782
F          5.38024       -1.31429       -5.82808
C          7.90362       -3.75160       -1.03971
F          7.85607       -3.71795        0.31970
F          7.75663       -5.06313       -1.40357
F          9.18851       -3.41343       -1.38575
H          3.48753       -0.64202       -0.53082
H          2.89563        0.92040        0.05938
H          5.58943        1.40626       -1.54039
H          6.61008       -1.66150        0.06661
H          6.99173       -3.91535       -3.58007
H          4.35661       -0.49923       -3.43152
