39

N          2.11804        0.33563       -2.16028
C          3.22784        0.13566       -1.20120
C          3.35686        1.32438       -0.24700
C          4.52730        1.24186        0.71567
As         5.20779        3.19617        1.16701
C          4.66710        3.21608        3.23949
C          4.78437        4.64797        3.75682
C          6.19956        5.08323        4.14848
C          3.24267        2.69643        3.37363
C          7.21215        2.54300        1.48703
C          8.02615        3.14910        0.37428
C          9.52635        2.95687        0.35948
O         10.22336        2.42540        1.19273
O         10.14004        3.47403       -0.77890
H          2.15435       -0.37654       -2.89247
H          2.25836        1.23195       -2.63352
H          4.20797       -0.01286       -1.69847
H          3.01766       -0.78563       -0.63198
H          2.40688        1.45742        0.29429
H          3.48595        2.24062       -0.86538
H          5.41042        0.80361        0.22482
H          4.30198        0.65751        1.62035
H          3.73018        3.80839        0.86969
H          5.80583        4.71952        1.28648
H          5.50887        3.27618       -0.44233
H          5.38256        2.55309        3.75426
H          4.11443        4.78868        4.62948
H          4.40378        5.33572        2.97377
H          6.61608        4.42352        4.92656
H          6.20969        6.11353        4.53879
H          6.87132        5.05021        3.28003
H          2.58698        3.18956        2.63221
H          2.81692        2.90558        4.37350
H          3.17146        1.61341        3.20228
H          7.26448        1.44556        1.49169
H          7.52227        2.92460        2.46823
H          7.84046        4.24643        0.35784
H          7.63884        2.79953       -0.60391
H          9.43777        3.85332       -1.33694
