27

C          1.20332        0.08893       -0.41282
C          2.64638       -0.16046        0.06338
C          3.19318        0.86491        1.06036
In         5.40105        0.66669        1.61341
C          6.20651       -0.50370       -0.16229
C          5.98023       -2.03055       -0.06714
C          6.05586       -2.70093       -1.42542
O          7.06723       -3.21452       -1.90922
N          4.86220       -2.69135       -2.13338
C          6.24315        2.74133        1.43778
H          0.85311       -0.68196       -1.12265
H          1.12205        1.06678       -0.91402
H          0.50491        0.10258        0.43890
H          3.29705       -0.18857       -0.83176
H          2.70073       -1.17480        0.49859
H          2.57585        0.85948        1.97579
H          3.09809        1.87893        0.62944
H          5.69265       -0.17740        3.16093
H          7.27079       -0.30047       -0.35578
H          5.65698       -0.09328       -1.02791
H          4.99977       -2.25656        0.38562
H          6.74683       -2.48358        0.57550
H          4.12824       -2.05602       -1.83596
H          4.93642       -2.86543       -3.13033
H          5.96991        3.14389        0.44909
H          7.34096        2.75561        1.51422
H          5.83904        3.42445        2.20055
