37

N          0.85885       -0.53961       -0.53586
C          2.11963        0.02309       -0.05105
C          2.54881       -0.40033        1.31915
C          2.29627       -1.69494        1.81788
C          2.74488       -2.08224        3.07806
C          3.46751       -1.20132        3.91219
C          3.72738        0.08877        3.40310
C          3.28331        0.47667        2.14187
Si         4.02982       -1.75759        5.60170
C          2.56438       -2.58089        6.50989
C          1.30565       -1.70708        6.54076
C          0.14303       -2.32351        7.28573
F         -0.25743       -3.51271        6.75131
F          0.43185       -2.56969        8.60145
F         -0.95285       -1.50612        7.28206
C          5.40580       -3.05147        5.50424
C          4.63364       -0.29820        6.64633
C          3.31670       -0.39386       -1.08575
O          3.06043       -1.41562       -1.76986
O          4.31483        0.35315       -1.05146
H          0.31843       -0.95045        0.22721
H          1.14227       -1.29678       -1.17673
H          2.09835        1.12406       -0.08772
H          1.75767       -2.40777        1.19015
H          2.52799       -3.10105        3.41678
H          4.28658        0.81065        4.00497
H          3.51049        1.47468        1.76206
H          2.88435       -2.83339        7.53369
H          2.34128       -3.53577        6.00802
H          0.95540       -1.49068        5.52049
H          1.49791       -0.73677        7.02370
H          5.08723       -3.90555        4.88988
H          5.68269       -3.42755        6.50045
H          6.30197       -2.62258        5.03465
H          3.86232        0.47842        6.74674
H          5.51871        0.17086        6.19399
H          4.91148       -0.63670        7.65524
