30

Br         1.60897        0.63998       -0.35720
Ta         3.96088       -0.29114       -0.38830
C          4.99029       -2.07646       -1.35510
C          4.49673       -2.51951       -2.76727
F          3.13495       -2.60203       -2.78373
F          4.86083       -1.66168       -3.75132
F          4.96259       -3.74914       -3.14909
F          6.34779       -1.74109       -1.53489
F          5.01776       -3.27530       -0.63724
C          4.80330        1.19939        0.98959
C          6.30006        1.33353        1.23676
O          7.10312        1.47642        0.04573
C          6.84528        2.63118       -0.73328
C          7.34940        3.94307       -0.14082
O          8.77409        3.98516       -0.18062
C          9.28918        5.16625        0.39297
H          4.41850        0.12964       -2.06298
H          3.10592       -1.73930        0.12873
H          4.95432       -1.18592        0.75962
H          4.32576        0.94868        1.95701
H          4.36187        2.17348        0.68915
H          6.68029        0.41157        1.69805
H          6.53006        2.17310        1.92786
H          5.76657        2.74393       -0.95000
H          7.35609        2.45991       -1.69301
H          6.99714        4.06890        0.90225
H          6.93181        4.78410       -0.73409
H         10.38385        5.11897        0.31440
H          9.01053        5.26166        1.46126
H          8.93146        6.07256       -0.13687
