36

C          1.49862       -0.39701        1.51603
C          2.91822       -0.01096        1.06935
C          3.05701        1.44934        0.62168
In         5.11354        2.14519        0.02842
C          6.17563        0.06812       -0.41053
C          7.56111       -0.11951       -1.08896
C          8.80977        0.17572       -0.18863
C         10.17036        0.36225       -0.95599
F         10.42495       -0.66598       -1.79064
F         10.19398        1.50662       -1.66365
F         11.18053        0.41913       -0.05093
F          8.62451        1.31866        0.52578
F          9.00313       -0.85246        0.68431
F          7.74411       -1.40670       -1.55970
F          7.62685        0.70672       -2.18445
F          6.23503       -0.73007        0.74985
F          5.31217       -0.62940       -1.27801
C          6.17226        3.07260        1.80009
C          5.40020        3.07429        3.12152
C          6.22547        3.68798        4.25805
S          5.42717        3.69905        5.92397
H          1.43076       -1.45916        1.80675
H          0.77136       -0.22420        0.70652
H          1.17642        0.20762        2.37893
H          3.22649       -0.68223        0.25265
H          3.61689       -0.22409        1.89585
H          2.73196        2.11812        1.43904
H          2.37763        1.64567       -0.22501
H          5.22626        3.11604       -1.45153
H          6.44056        4.10472        1.51696
H          7.11934        2.52834        1.93262
H          5.10673        2.05269        3.41267
H          4.45749        3.64156        3.02568
H          6.52970        4.71541        4.01126
H          7.14608        3.10605        4.41833
H          4.32101        4.38782        5.55736
