22

C          2.50583       -1.00381       -3.48873
C          2.35154        0.35958       -2.80405
C          3.12127        0.56953       -1.48756
Nb         5.39087        0.63156       -1.50755
C          6.62617        0.10512        0.22901
C          5.93534       -0.36507        1.51061
Cl         7.05343        1.04789       -3.18588
H          1.85095       -1.07953       -4.37279
H          2.23763       -1.82097       -2.79901
H          3.54183       -1.18437       -3.80344
H          1.26813        0.52463       -2.62739
H          2.64751        1.15121       -3.51663
H          2.91651       -0.27871       -0.79723
H          2.72806        1.47490       -1.00855
H          4.85116       -1.01263       -2.04520
H          4.81331        2.23906       -1.98438
H          4.85006        1.65358       -0.16523
H          7.30517        0.95176        0.43618
H          7.25464       -0.70996       -0.19458
H          5.36786        0.45970        1.96584
H          6.64074       -0.75154        2.27197
H          5.21547       -1.17560        1.31055
