35

C          0.91561       -1.81541       -2.13792
O          2.31514       -1.77025       -1.97683
C          2.75649       -0.51824       -1.45505
C          4.27166       -0.46965       -1.40298
O          4.79556       -0.23514       -2.68620
C          6.26096       -0.16876       -2.67595
C          6.83704        0.09850       -4.03504
Ga         8.90535        0.20229       -3.94979
C          9.76808       -0.61182       -5.63481
C         10.19976       -2.07454       -5.44271
C          9.00441       -2.97129       -5.12683
S          9.41360       -4.72739       -4.77811
C          9.54665        2.10445       -3.57550
H          0.66296       -2.80575       -2.54005
H          0.55728       -1.04016       -2.84396
H          0.38309       -1.67411       -1.17444
H          2.34331       -0.37698       -0.43363
H          2.38761        0.30948       -2.09245
H          4.65132       -1.42240       -0.97431
H          4.56784        0.33995       -0.69780
H          6.63783       -1.12709       -2.26718
H          6.54884        0.62312       -1.95335
H          6.44799        1.04950       -4.43462
H          6.54375       -0.70285       -4.73260
H          9.36103       -0.77222       -2.71737
H         10.65723       -0.00622       -5.88277
H          9.09007       -0.53309       -6.50425
H         10.90954       -2.14739       -4.60188
H         10.72208       -2.48972       -6.33056
H          8.25597       -2.93893       -5.93160
H          8.51873       -2.62674       -4.20149
H         10.06644       -4.97528       -5.93979
H         10.37918        2.39053       -4.23890
H          9.91130        2.18327       -2.53921
H          8.74732        2.85213       -3.70342
