27

F          1.57083        0.49681        1.80093
C          1.49482       -0.40888        2.82963
O          1.49709       -1.68016        2.42700
C          2.69365       -2.13228        1.68988
Al         2.37543       -4.03419        1.13741
S          3.47742       -4.34413       -0.99150
O          3.69683       -5.73297       -1.41002
O          2.77510       -3.42898       -1.91071
C          5.33780       -3.65301       -0.83515
C          5.62863       -2.31920       -1.57383
C          7.07028       -1.71959       -1.39674
F          8.01760       -2.57481       -1.83040
F          7.17369       -0.58033       -2.12248
F          7.32138       -1.41685       -0.10904
F          5.44650       -2.50842       -2.90849
F          4.76411       -1.36333       -1.12974
F          5.54683       -3.47655        0.50623
F          6.19042       -4.60329       -1.28543
S          3.28184       -5.47114        2.81965
O          2.46697       -5.29740        4.01876
O          3.70010       -6.81374        2.44813
F          4.72295       -4.69412        3.20916
F          2.52480       -0.09095        3.67523
F          0.33908       -0.16810        3.49122
H          3.57086       -2.02566        2.34461
H          2.83074       -1.47888        0.81477
H          0.93647       -4.62996        0.81764
