39

Cl         1.54698        0.57711        0.64230
In         3.61910        0.19471       -0.79312
C          4.70790        2.13529       -0.44533
C          5.52731        2.25436        0.82256
O          6.55129        1.24076        0.85976
C          7.34735        1.31547        2.01745
C          8.34510        0.17306        2.02939
O          9.39843        0.42440        1.10263
C         10.23567       -0.69959        0.93152
C          4.51815       -1.57306        0.25857
C          4.29201       -2.89087       -0.44565
O          4.71042       -2.76493       -1.81685
C          4.21199       -3.76064       -2.67692
C          4.26266       -3.24541       -4.10210
O          5.60420       -3.26393       -4.58965
C          5.75595       -2.46931       -5.74718
H          2.99328        0.01783       -2.44495
H          3.89889        2.88131       -0.39930
H          5.33011        2.38088       -1.32108
H          4.88024        2.14515        1.71767
H          6.03836        3.24227        0.91277
H          6.72273        1.23849        2.93444
H          7.89174        2.28363        2.07327
H          7.82058       -0.76541        1.76710
H          8.76486        0.06003        3.05160
H         10.99495       -0.43122        0.18517
H          9.67008       -1.57801        0.56740
H         10.74635       -0.98293        1.87494
H          4.04732       -1.59765        1.25293
H          5.59170       -1.37617        0.39582
H          3.21601       -3.16080       -0.42244
H          4.84959       -3.74321        0.00913
H          3.15303       -3.98871       -2.43430
H          4.78505       -4.70979       -2.59227
H          3.86554       -2.21313       -4.10569
H          3.61912       -3.87406       -4.75319
H          6.80822       -2.53608       -6.05476
H          5.50540       -1.41082       -5.54721
H          5.11714       -2.82477       -6.58126
