24

Cl         1.17367        0.35150        1.35470
Sb         3.45062       -0.48330        0.30447
C          4.17425        1.67947       -0.62383
C          3.44621        3.04242       -0.60893
C          3.44026        3.83264        0.74205
F          4.67897        4.28631        1.05507
F          2.63506        4.92188        0.62249
F          2.99112        3.09822        1.76908
F          3.99687        3.93112       -1.52683
F          2.14872        2.85440       -0.98308
F          5.48207        1.92768       -0.18426
F          4.29033        1.37604       -1.98074
C          4.35137        0.03959        2.25582
C          5.75098       -0.52870        2.36635
N          6.28459       -0.36606        3.74207
H          2.51895       -0.55620       -1.15690
H          4.95790       -1.00179       -0.44916
H          3.04994       -2.11939        0.82497
H          3.66070       -0.38931        2.99216
H          4.33249        1.13282        2.33544
H          6.39522       -0.06512        1.59650
H          5.73342       -1.61213        2.15363
H          6.26169        0.62717        3.98550
H          7.27121       -0.63605        3.76063
