52

N          9.34094       13.05684       -0.25267
C          8.52015       11.98154       -0.67603
N          7.36683       12.08225       -1.24968
N          9.07561       10.75870       -0.38145
C          8.33316        9.50903       -0.55331
C          9.24327        8.31312       -0.28092
C          8.51730        6.96064       -0.31061
C          9.42886        5.75079       -0.07032
Al         8.49377        3.96831       -0.09690
C          9.78919        2.41948       -0.01804
C         10.80981        2.29749        0.94937
C         11.70667        1.22700        0.95868
C         11.62983        0.20101       -0.00770
C         10.61963        0.31094       -0.98218
C          9.73178        1.39288       -0.98262
Si        12.80274       -1.25366        0.06616
C         12.55583       -2.12930        1.74575
C         13.45927       -3.34322        1.98210
C         13.27782       -3.99645        3.33569
F         12.00894       -4.45026        3.53504
F         14.10513       -5.07955        3.48444
F         13.56104       -3.15159        4.36724
C         12.46108       -2.49719       -1.32085
C         14.60836       -0.68574       -0.05063
I          6.99633        3.86487        2.11076
H          9.05912       13.94251       -0.66230
H         10.33499       12.89180       -0.40300
H          7.16476       13.05873       -1.48258
H          9.72210       10.75787        0.40219
H          7.94433        9.48794       -1.58122
H          7.45268        9.48406        0.11404
H          9.71366        8.43383        0.71382
H         10.06865        8.30744       -1.01332
H          8.00727        6.85306       -1.28483
H          7.71272        6.97337        0.44575
H          9.95429        5.86985        0.89539
H         10.22171        5.72736       -0.84317
H          7.50218        3.76537       -1.37176
H         10.90192        3.05841        1.73154
H         12.47625        1.18756        1.73847
H         10.51847       -0.46127       -1.75195
H          8.95977        1.43750       -1.75848
H         11.49731       -2.42507        1.81348
H         12.71392       -1.38132        2.53871
H         14.52445       -3.07432        1.91457
H         13.27722       -4.13158        1.23577
H         11.43759       -2.89402       -1.26221
H         13.15709       -3.34783       -1.27465
H         12.58039       -2.02762       -2.30776
H         14.84149        0.04188        0.74007
H         14.78799       -0.19030       -1.01546
H         15.31882       -1.52155        0.03562
