11

Cl         0.99363        0.70039       -0.02886
Al         2.84544       -0.40904       -0.02400
S          3.85939        0.13623       -2.14660
O          3.15444       -0.46893       -3.27285
O          4.38074        1.48820       -2.31167
F          5.25553       -0.80995       -2.00691
C          4.08944        0.32434        1.43938
F          4.27865        1.68618        1.47212
F          3.58931        0.00435        2.70260
F          5.36102       -0.21783        1.42441
H          2.71176       -1.99595       -0.00171
