26

I          0.81277        0.74212        0.34622
B          3.05208        0.72058       -0.14741
C          3.98693        0.69239        1.20862
C          3.99017       -0.40481        2.34346
C          4.36379       -1.87602        1.95881
C          4.47851       -2.88321        3.16624
F          3.36515       -2.90736        3.92313
F          4.66876       -4.13026        2.66881
F          5.52965       -2.59893        3.96163
F          3.41382       -2.37833        1.13009
F          5.57228       -1.91633        1.33546
F          4.89382       -0.02597        3.31309
F          2.76110       -0.44407        2.93100
F          5.32798        0.82041        0.84435
F          3.70244        1.84462        1.94298
C          3.38670       -0.38271       -1.32682
C          3.40612        0.23862       -2.76500
C          3.63004       -0.73743       -3.97546
F          4.78214       -1.42994       -3.86768
F          2.61736       -1.61502       -4.11661
F          3.69927       -0.01226       -5.12638
F          2.22585        0.87613       -3.01635
F          4.41409        1.16045       -2.84446
F          4.65861       -0.94015       -1.17566
F          2.52309       -1.46733       -1.39859
H          3.27450        1.82496       -0.58198
