29

C          5.29967        1.06000        0.48244
C          4.39899        0.38477        1.52210
C          2.88504        0.59525        1.31237
C          2.29087        2.00815        1.25069
C          2.48272        2.77877       -0.12612
O          2.87759        2.07131       -1.07973
O          2.08105        3.97841       -0.13803
C          0.77679        2.00169        1.54442
C         -0.07875        1.39638        0.39307
C         -1.11686        2.34115       -0.22045
O         -2.28901        1.98173       -0.40571
N         -0.65623        3.57078       -0.55840
Br         3.09243        3.10817        2.77059
C          4.68361       -1.12405        1.57687
H          5.18115        2.15033        0.49197
H          5.05624        0.72310       -0.53455
H          6.35629        0.82712        0.69517
H          4.64747        0.81085        2.50891
H          2.37038        0.04825        2.12228
H          2.59929        0.11989        0.35906
H          0.47304        3.04139        1.71591
H          0.59307        1.44695        2.47693
H         -0.63376        0.51317        0.73153
H          0.57871        1.07470       -0.43196
H          0.34577        3.83832       -0.46385
H         -1.30883        4.19136       -1.02196
H          4.45182       -1.60211        0.61126
H          4.07888       -1.62261        2.35028
H          5.74443       -1.31821        1.79814
