35

C          0.88758       -0.73127       -0.69041
C          2.31313       -0.32975       -0.27540
C          2.97631        0.67756       -1.20272
Sb         5.09100        1.32681       -0.57410
C          5.68513       -0.93996       -0.66279
O          7.05963       -1.09710       -1.19124
C          7.56083       -2.31662       -1.22271
F          6.83174       -3.22288       -1.96568
F          8.80527       -2.27790       -1.77664
F          7.70379       -2.90990        0.01528
C          5.70178        1.46874       -2.76781
C          5.58843        2.86228       -3.36445
C          5.97253        2.95583       -4.85229
C          5.89216        4.37678       -5.42116
H          0.44301       -1.46470        0.00441
H          0.88348       -1.17939       -1.69674
H          0.22397        0.14707       -0.72363
H          2.92633       -1.24647       -0.21886
H          2.29418        0.07175        0.75327
H          2.38820        1.60913       -1.26465
H          3.07479        0.26940       -2.22239
H          6.77302        1.70354       -0.06559
H          4.60228        1.08018        1.14896
H          4.61400        3.06880       -0.53263
H          5.00948       -1.49625       -1.33068
H          5.65603       -1.36873        0.35000
H          5.06223        0.75093       -3.30767
H          6.73746        1.09748       -2.80436
H          6.22453        3.56286       -2.79201
H          4.55706        3.24321       -3.24377
H          5.31547        2.28679       -5.43492
H          6.99470        2.56170       -4.98488
H          4.87323        4.78400       -5.32804
H          6.16911        4.41196       -6.48646
H          6.56608        5.05764       -4.87841
