18

C          0.95765        0.01722        0.15467
C          2.46792        0.06602       -0.09274
C          2.95078       -1.21573       -0.80057
N          2.67100       -2.37627       -0.00158
C          2.98046       -3.53069       -0.50630
F          4.39384       -3.78555       -0.87126
F          2.68331       -4.61168        0.31125
F          2.37095       -3.92437       -1.79466
C          2.86811        1.31666       -0.88212
H          0.70608       -0.91823        0.67224
H          0.41072        0.02976       -0.80385
H          0.61075        0.87492        0.75461
H          2.97191        0.09036        0.89080
H          4.03899       -1.09179       -1.01304
H          2.45392       -1.24925       -1.80132
H          2.39520        1.31458       -1.87866
H          3.95814        1.36101       -1.03362
H          2.55693        2.24101       -0.36899
