15

C          1.10458        0.07993       -0.11120
S          2.90486        0.11233        0.12369
C          3.45580       -0.28328       -1.58100
C          4.97294       -0.28919       -1.66700
S          5.53035       -0.67452       -3.38244
O          4.96234       -2.01066       -3.65783
O          4.94996        0.40727       -4.20496
O          7.00112       -0.64498       -3.28435
H          0.64404        0.30943        0.85873
H          0.76255       -0.91168       -0.44042
H          0.78458        0.83493       -0.84347
H          3.04711        0.47131       -2.26858
H          3.06096       -1.26973       -1.86333
H          5.41828       -1.05604       -1.01796
H          5.40173        0.69097       -1.41609
