42

N          4.58603       -2.96039       -0.20847
C          4.20764       -1.53404       -0.12169
C          4.82497       -0.86986        1.10602
C          4.44593        0.61277        1.21668
C          4.97503        1.37323        2.45139
C          4.44642        2.89066        2.43138
O          3.63116        3.19083        1.51980
O          4.89821        3.61243        3.36099
C          4.48792        0.74922        3.78147
C          2.96534        0.75613        3.96161
C          2.44004       -0.03437        5.17233
C          2.75270        0.45795        6.57416
C          2.27560        1.89892        6.94041
F          0.95149        2.03390        6.65935
F          2.43495        2.12997        8.26837
F          2.95339        2.83525        6.26886
F          2.12173       -0.38251        7.48615
F          4.09215        0.40028        6.86630
C          6.51867        1.40080        2.50294
C          7.21195        2.02955        1.28982
C          8.72101        2.18740        1.49756
H          4.08833       -3.40908       -0.97980
H          4.27714       -3.43877        0.64114
H          3.11056       -1.37497       -0.09757
H          4.57663       -1.03495       -1.03293
H          5.91891       -1.00070        1.06378
H          4.48608       -1.42049        2.00370
H          3.35123        0.72223        1.18463
H          4.78692        1.14554        0.31581
H          4.95263        1.33515        4.58755
H          4.86369       -0.28836        3.87908
H          2.48655        0.29788        3.08210
H          2.60481        1.79460        3.98361
H          2.83147       -1.06527        5.15223
H          1.34291       -0.10752        5.12459
H          6.91672        0.37820        2.66064
H          6.78374        1.99206        3.39426
H          6.76022        3.01586        1.09920
H          7.03253        1.42375        0.38557
H          8.92938        2.83326        2.36429
H          9.21110        2.63614        0.61969
H          9.20376        1.21498        1.68813
