34

N          1.29373       -2.41638        1.20858
C          2.44127       -1.71608        1.85292
C          3.55791       -1.40581        0.87833
Nb         5.45743       -0.47392        1.47551
C          6.53053        0.15769       -0.44972
C          6.96935       -0.98062       -1.40333
F          5.90300       -1.77254       -1.72092
F          7.51051       -0.56442       -2.58581
F          7.89584       -1.77733       -0.80649
F          5.68458        0.95122       -1.24174
F          7.70288        0.89863       -0.25855
C          6.66336       -1.86974        2.66275
C          6.12104       -3.12984        2.99604
C          6.86649       -4.11517        3.65915
C          8.20505       -3.89547        4.00312
C          8.76816       -2.65029        3.66803
C          8.01391       -1.66631        3.02867
C          9.01615       -4.94923        4.71829
H          0.66141       -2.78038        1.92744
H          1.65427       -3.23495        0.71198
H          2.84664       -2.29728        2.70729
H          2.06095       -0.77240        2.27274
H          3.18761       -0.75191        0.06456
H          3.91610       -2.34687        0.39458
H          4.20608        0.50950        2.19743
H          5.73236        1.25715        1.41639
H          5.79799        0.29822        3.00212
H          5.08114       -3.36393        2.73928
H          6.40167       -5.07599        3.90523
H          9.81365       -2.45002        3.92622
H          8.48903       -0.70364        2.81344
H          8.46836       -5.90049        4.77591
H          9.26064       -4.64420        5.74911
H          9.97227       -5.14090        4.20661
