77

C         17.17085       -4.44164       -1.55838
C         16.62550       -3.88788       -0.24006
C         15.17571       -4.29684        0.03996
C         14.63315       -3.75150        1.36363
C         13.18304       -4.14705        1.66104
C         12.67734       -3.59865        2.99812
C         11.22550       -3.96021        3.33855
C         10.78359       -3.39261        4.69427
Si         9.00262       -3.70076        5.29700
C          8.84948       -2.81510        6.94362
C          9.09706       -1.42809        7.01498
C          9.12097       -0.75528        8.24035
C          8.89977       -1.41102        9.46928
C          8.62023       -2.78896        9.38043
C          8.59832       -3.47792        8.16030
In         8.96331       -0.30203       11.43370
C          7.38588        1.32042       11.18942
C          6.17165        0.89298       10.36101
C          5.07617        1.92069       10.05866
O          3.95912        1.61345        9.63458
N          5.43519        3.22851       10.25183
C          8.37620       -1.77582       13.04758
C          6.88846       -1.90402       13.39677
C          6.61489       -2.89558       14.54237
C          5.15286       -2.99813       14.98358
N          5.03916       -3.90448       16.12469
C          3.84788       -4.12654       16.78769
N          2.66282       -3.72936       16.46444
N          4.01772       -4.88569       17.96333
C          7.77594       -3.01802        4.02141
C          8.69576       -5.56217        5.47717
H         18.21078       -4.12945       -1.73044
H         16.57214       -4.09303       -2.41345
H         17.14697       -5.54183       -1.56691
H         16.69523       -2.78687       -0.24504
H         17.26327       -4.22622        0.59415
H         15.10257       -5.39905        0.04065
H         14.53361       -3.95193       -0.79004
H         14.71371       -2.65000        1.36269
H         15.27856       -4.09838        2.19001
H         13.09603       -5.24820        1.65841
H         12.53080       -3.78888        0.84478
H         12.77838       -2.49887        3.00109
H         13.33317       -3.96007        3.80982
H         11.11716       -5.05926        3.33326
H         10.56439       -3.58785        2.53629
H         10.92889       -2.29767        4.69911
H         11.45060       -3.76961        5.48972
H          9.28677       -0.86001        6.09622
H          9.32991        0.32040        8.23139
H          8.41965       -3.35779       10.29543
H          8.39026       -4.55347        8.16044
H         10.56453        0.42173       11.73108
H          7.92271        2.15751       10.70984
H          7.07713        1.65862       12.19292
H          5.64504        0.04187       10.82116
H          6.49062        0.51360        9.37375
H          6.30163        3.42963       10.74004
H          4.72650        3.94355       10.14690
H          8.94011       -1.49547       13.95443
H          8.76741       -2.76334       12.74353
H          6.31159       -2.22046       12.50941
H          6.47727       -0.91841       13.68015
H          7.22341       -2.59031       15.41427
H          6.97336       -3.89753       14.25129
H          4.53009       -3.38472       14.15993
H          4.76624       -1.99207       15.23801
H          5.86717       -3.93869       16.71344
H          2.69658       -3.08762       15.66818
H          4.63244       -5.68825       17.84503
H          3.10964       -5.16461       18.32668
H          7.88868       -1.93073        3.90376
H          6.74198       -3.20881        4.34284
H          7.91432       -3.48241        3.03322
H          9.39300       -6.01903        6.19392
H          8.82156       -6.07454        4.51171
H          7.67375       -5.76360        5.82921
