32

Br         3.27309        1.78157       -0.74291
C          3.45907        0.05594        0.12876
C          3.54177        0.00096        1.51291
C          3.78555       -1.25669        2.19367
C          3.81965       -1.34705        3.57661
C          3.64468       -0.23217        4.41894
C          3.43692        1.00429        3.77393
C          3.39061        1.13597        2.39643
C          3.31648        2.22579        4.63457
F          2.45999        2.04561        5.69388
F          4.51631        2.59295        5.20404
F          2.86894        3.33164        3.97414
C          3.99601       -2.69109        4.21457
F          2.80446       -3.23670        4.64204
F          4.55008       -3.62910        3.38873
F          4.79286       -2.65356        5.33068
C          3.68140       -1.06987       -0.82498
C          5.15433       -1.31906       -1.22485
C          5.33872       -2.49938       -2.18263
C          6.79694       -2.73903       -2.58487
H          3.94726       -2.16083        1.61035
H          3.68640       -0.31742        5.50126
H          3.23192        2.11836        1.95691
H          3.09081       -0.90803       -1.74410
H          3.27787       -1.99929       -0.37839
H          5.74663       -1.48397       -0.30914
H          5.55212       -0.39898       -1.68559
H          4.72985       -2.33002       -3.08842
H          4.93194       -3.41335       -1.71511
H          7.22318       -1.85185       -3.07805
H          6.89968       -3.58751       -3.27829
H          7.42069       -2.95183       -1.70339
