34

N          0.83092        0.77029       -0.83543
C          2.00675        0.18600       -0.14372
Nb         3.40872        1.75181        0.65499
C          2.20743        2.87064        2.11617
C          2.91710        3.88294        3.02623
C          3.53603        5.08006        2.28832
C          0.94474        3.42714        1.44348
C          5.36680        1.60005        1.78367
C          6.48334        0.56846        1.61668
C          7.33544        0.63262        0.34917
O          8.36881       -0.04135        0.22169
N          6.88471        1.47277       -0.61663
H          0.22668        0.04772       -1.24193
H          1.17067        1.35519       -1.60158
H          2.58219       -0.53495       -0.76081
H          1.62831       -0.38964        0.72343
H          3.02038        2.10251       -1.06133
H          3.79985        0.10389        1.15083
H          4.60830        2.70127       -0.29476
H          1.91632        1.99129        2.73679
H          3.71226        3.37093        3.59245
H          2.20503        4.27239        3.78588
H          4.28139        4.74707        1.55014
H          4.03650        5.76456        2.99057
H          2.77382        5.66088        1.74852
H          1.17535        4.27821        0.78286
H          0.21291        3.79531        2.19119
H          0.44328        2.66757        0.82300
H          4.88254        1.39551        2.76323
H          5.80977        2.61460        1.84746
H          6.04678       -0.44553        1.62287
H          7.21783        0.58278        2.44364
H          5.98302        1.97602       -0.50641
H          7.37939        1.48211       -1.50087
