33

C          1.17392       -1.74227       -1.13605
C          1.84024       -0.47256       -0.58933
C          2.86407       -0.81885        0.50538
Ta         2.30608       -1.67344        2.51967
C          1.12668       -0.51819        3.99308
C          1.15230        0.89315        4.09812
C          0.35493        1.60098        4.99646
C         -0.53125        0.94195        5.86533
C         -0.57471       -0.45570        5.78356
C          0.22953       -1.16073        4.87926
C         -1.37340        1.70867        6.85670
O          1.81066       -3.52257        2.60053
C          2.45853        0.34777       -1.73611
H          0.64354       -2.26750       -0.32711
H          1.93016       -2.43034       -1.55275
H          0.44495       -1.52285       -1.93369
H          1.04625        0.13555       -0.12130
H          3.34789        0.11838        0.86420
H          3.70038       -1.38089        0.04494
H          0.87515       -0.87350        1.78127
H          4.08877       -1.69746        2.26967
H          3.25980       -1.21386        3.95617
H          1.81321        1.46914        3.43993
H          0.41327        2.69513        5.02124
H         -1.25817       -1.00868        6.43865
H          0.13640       -2.25254        4.86379
H         -1.67800        2.68693        6.45367
H         -0.83177        1.90504        7.79905
H         -2.28833        1.15624        7.11956
H          1.80884       -4.08561        1.81260
H          3.25763       -0.22115       -2.24108
H          2.91115        1.27445       -1.35136
H          1.71217        0.62690       -2.50043
