18

O          2.31251        0.16624        1.32644
Nb         3.19471        0.10579       -0.42735
C          4.19493        2.07640       -0.42622
C          3.33387        3.35132       -0.38261
C          4.13643        4.60552       -0.07068
O          4.43761        5.46725       -0.89620
N          4.51228        4.73454        1.25670
I          5.35956       -1.68270       -0.28165
H          1.39281       -0.12047        1.39680
H          1.53281       -0.22646       -0.87289
H          2.94701       -0.86084       -1.88617
H          2.54738        1.06243       -1.75710
H          4.88809        2.11666       -1.28434
H          4.82385        2.00027        0.48862
H          2.54061        3.24466        0.37742
H          2.84375        3.49986       -1.35224
H          4.49665        3.90497        1.84029
H          5.25071        5.40490        1.44433
