26

C          1.04698        0.01762       -0.08847
C          2.58053       -0.01250       -0.13096
N          3.05911       -0.70562       -1.25859
C          4.46890       -0.71378       -1.27780
C          4.95782       -1.46446       -2.51118
O          6.40242       -1.49426       -2.56476
C          6.88560       -2.18133       -3.68704
C          8.40642       -2.14225       -3.62189
O          8.93868       -2.83809       -4.75050
C         10.34879       -2.84281       -4.75699
H          0.66761        0.56101        0.79440
H          0.65353       -1.01163       -0.06942
H          0.65764        0.50099       -0.99910
H          2.93782       -0.44576        0.86517
H          2.94155        1.07061       -0.06642
H          4.95560       -1.20373       -0.37088
H          4.95025        0.31939       -1.30013
H          4.56582       -0.97358       -3.42335
H          4.56896       -2.50139       -2.49134
H          6.54034       -1.71487       -4.63524
H          6.54020       -3.23789       -3.70240
H          8.75248       -2.61243       -2.68068
H          8.75378       -1.09050       -3.61859
H         10.67088       -3.39383       -5.65125
H         10.76411       -3.34259       -3.85908
H         10.76448       -1.81614       -4.80009
