42

S          3.33095        0.78181        1.22796
C          2.42791        0.80329       -0.38259
C          2.97592       -0.28892       -1.30484
C          4.45421       -0.17677       -1.63733
P          5.11853       -1.74215       -2.61646
C          5.24182       -0.73423       -4.30621
C          5.66569       -1.55145       -5.53097
C          4.55976       -2.28453       -6.28282
O          4.61427       -2.49798       -7.50220
N          3.51392       -2.70271       -5.51975
C          6.98860       -1.34164       -2.18340
C          7.47661       -2.11433       -0.96741
C          8.98027       -1.91584       -0.70622
C          9.49842       -2.63310        0.52279
C         11.02643       -2.46083        0.78260
F         11.75026       -2.94575       -0.25547
F         11.34630       -1.15248        0.93518
F         11.42142       -3.11355        1.89967
F          8.87160       -2.19159        1.66903
F          9.28242       -3.99299        0.44969
H          2.42720        1.52711        1.90894
H          2.55717        1.79627       -0.83782
H          1.35982        0.64637       -0.16985
H          2.38021       -0.26213       -2.23410
H          2.78376       -1.27660       -0.84806
H          5.04922       -0.15334       -0.70874
H          4.66062        0.75736       -2.18778
H          5.57362       -2.98754       -3.31081
H          3.67051       -2.12763       -2.94913
H          4.95945       -2.52739       -1.35752
H          5.96613        0.07985       -4.14613
H          4.25977       -0.26139       -4.47453
H          6.37481       -2.34094       -5.20485
H          6.19188       -0.95299       -6.28946
H          3.48827       -2.55590       -4.49859
H          2.78692       -3.24155       -5.97520
H          7.11710       -0.25601       -2.02995
H          7.57774       -1.62220       -3.07400
H          7.26706       -3.18743       -1.10925
H          6.90735       -1.80661       -0.07595
H          9.20692       -0.84583       -0.57983
H          9.56496       -2.26973       -1.56947
