15

Br         3.26573        1.33690       -1.33217
N          2.69889        0.10980        0.03674
C          3.41989       -0.99877        0.01869
C          2.94791       -1.92152        1.18752
C          1.41123       -2.24141        1.30463
C          0.66717       -2.83974        0.06000
F          1.28831       -3.94344       -0.40260
F         -0.58453       -3.21805        0.46019
F          0.52071       -1.96227       -0.93382
F          1.28008       -3.19182        2.29809
F          0.71690       -1.15033        1.70656
F          3.58784       -3.13144        1.11749
F          3.28564       -1.37148        2.39904
F          3.37471       -1.87373       -1.17368
F          4.86565       -0.93133        0.17056
