36

N          0.65953       -0.35441       -0.65653
C          2.02304        0.21580       -0.46134
C          2.99991       -0.29054       -1.50772
In         5.10619        0.52098       -1.46038
C          6.24192        0.17206        0.53607
C          7.34956        1.04993        0.54223
C          8.23671        1.16003        1.61610
C          8.03667        0.39392        2.76912
C          6.96291       -0.48731        2.80881
C          6.09030       -0.61381        1.70886
C          5.02724       -1.66273        1.89063
O          4.83069       -2.26143        2.93777
O          4.27831       -1.96833        0.80627
C          6.15103       -0.75561       -2.99369
C          7.66491       -0.92920       -2.87066
C          8.22538       -1.81231       -3.99209
S         10.02543       -2.20961       -3.89663
H          0.07535       -0.13660        0.15652
H          0.74796       -1.37438       -0.66210
H          2.41420       -0.00030        0.55105
H          1.92634        1.31204       -0.53464
H          2.63611       -0.03572       -2.51696
H          3.04723       -1.39398       -1.47575
H          5.25230        2.26618       -1.71543
H          7.52531        1.68922       -0.32844
H          9.08156        1.85137        1.55580
H          8.71237        0.48038        3.62269
H          6.77175       -1.10914        3.68491
H          4.51742       -1.34433        0.08134
H          5.89090       -0.33602       -3.98094
H          5.65685       -1.74111       -2.93499
H          7.93310       -1.37030       -1.89722
H          8.17411        0.05056       -2.90574
H          8.01753       -1.37155       -4.97811
H          7.74606       -2.80318       -3.97363
H         10.46693       -0.92985       -3.87142
