31

C          5.70636        3.36732        0.71013
S          4.57352        2.94859       -0.64613
C          4.01370        1.21440       -0.44249
C          3.88854        0.90511       -1.93125
Ta         5.69221        2.14407       -2.83035
C          4.27411        2.20162       -4.48097
C          4.00645        3.56620       -4.28771
C          3.00729        4.25038       -4.98837
C          2.26191        3.55369       -5.94724
C          2.52293        2.20172       -6.18061
C          3.51372        1.52168       -5.45245
C          3.71526        0.06197       -5.76724
O          3.01300       -0.53484       -6.57723
O          4.70270       -0.56976       -5.12460
S          7.76299        2.24426       -4.14965
H          6.16469        4.32671        0.43958
H          6.48665        2.60060        0.78479
H          5.15490        3.46771        1.65453
H          3.11332        1.15484        0.19629
H          4.84318        0.66071        0.01637
H          2.90021        1.21243       -2.30584
H          4.02043       -0.16235       -2.14963
H          6.43881        3.76159       -2.36481
H          6.37515        1.04003       -1.60105
H          6.17993        0.55143       -3.51118
H          4.62140        4.15273       -3.56374
H          2.81947        5.31142       -4.80473
H          1.48510        4.06761       -6.51781
H          1.96324        1.63974       -6.93071
H          5.20388        0.05319       -4.49050
H          8.20828        3.51639       -3.97994
