48

F          6.02827        3.04931        6.91415
C          4.90700        3.70167        6.49603
C          4.25326        3.03158        5.30533
C          3.78517        1.59598        5.56957
Si         2.99202        0.73240        4.06171
C          2.43939       -0.99055        4.56166
C          1.26602       -1.18326        5.31865
C          0.84395       -2.45864        5.70634
C          1.58361       -3.60524        5.36109
C          2.75893       -3.41425        4.61282
C          3.17746       -2.13877        4.21804
In         0.91262       -5.63049        5.88605
S         -0.91233       -5.24607        7.84920
O         -1.68364       -4.06103        7.40744
O         -1.67948       -6.42928        8.28109
C         -0.09496       -4.54473        9.51316
C          0.16104       -5.57584       10.63857
F          0.85794       -6.63053       10.17352
F          0.88716       -5.01946       11.65367
F         -0.99736       -6.01374       11.16811
F          1.10426       -3.99210        9.15810
F         -0.88710       -3.56113       10.01578
C          2.58477       -7.03048        6.61541
C          3.80823       -6.45808        7.35868
F          4.44703       -5.54001        6.58651
F          3.43197       -5.84783        8.50509
F          4.72887       -7.40801        7.68969
F          2.09301       -8.04673        7.42101
F          3.11187       -7.66547        5.48111
C          1.51093        1.76012        3.48330
C          4.27232        0.65396        2.66926
F          4.07553        3.78624        7.57134
F          5.29131        4.98285        6.19914
H          4.99158        3.07289        4.49005
H          3.41355        3.68032        5.01404
H          3.05494        1.58149        6.39376
H          4.63318        0.97573        5.90124
H          0.65673       -0.32228        5.61282
H         -0.07810       -2.55948        6.28457
H          3.37667       -4.27022        4.32728
H          4.09601       -2.04529        3.63103
H         -0.13522       -6.57088        4.85729
H          0.73997        1.82730        4.26414
H          1.04658        1.29837        2.60032
H          1.80398        2.78483        3.21086
H          5.18401        0.12574        2.98278
H          4.56693        1.66163        2.34048
H          3.86441        0.12684        1.79510
