57

C         10.23470        1.87726        1.04082
C          9.34255        2.84772        0.25952
C          7.89425        2.35939        0.09288
C          6.96521        3.30939       -0.67504
Al         5.03289        2.68571       -0.79218
C          3.88075        4.18400       -1.58410
C          4.08838        4.73907       -2.86721
C          3.28638        5.75105       -3.39754
C          2.21610        6.25830       -2.64124
C          1.97806        5.74233       -1.35839
C          2.80183        4.73162       -0.85640
C          1.34751        7.33793       -3.20818
C          0.29747        6.92025       -4.30976
C         -0.80493        5.84190       -3.98282
C         -1.92918        6.10827       -2.89734
C         -2.85278        7.37312       -3.06138
C         -4.17819        7.31755       -2.20860
F         -3.92138        7.02421       -0.92107
F         -4.76874        8.53166       -2.25913
F         -5.04487        6.41347       -2.69844
F         -2.17876        8.47993       -2.66975
F         -3.23161        7.51775       -4.35882
F         -2.74179        5.00898       -2.95125
F         -1.36490        6.15077       -1.66814
F         -1.45788        5.59641       -5.15894
F         -0.19480        4.69550       -3.59735
F         -0.36044        8.03772       -4.75096
F          0.98745        6.40926       -5.36973
F          0.63067        7.99649       -2.23183
F          2.10826        8.30384       -3.85044
C          4.86339        1.04449       -1.99206
C          3.44680        0.58405       -2.38371
C          3.45650       -0.55882       -3.41442
C          2.62248        0.17270       -1.15509
H         11.26562        2.25009        1.14450
H         10.28296        0.89665        0.54178
H          9.83809        1.70672        2.05399
H          9.77573        3.02849       -0.73984
H          9.32991        3.82966        0.76390
H          7.47570        2.16699        1.09863
H          7.91807        1.37182       -0.40524
H          7.37588        3.48009       -1.68959
H          6.97657        4.30070       -0.18262
H          4.43092        2.43402        0.72501
H          4.91463        4.37086       -3.48471
H          3.49109        6.15742       -4.38981
H          1.15863        6.13805       -0.75675
H          2.60039        4.35021        0.14986
H          5.38919        0.19518       -1.50889
H          5.43806        1.24577       -2.91812
H          2.92773        1.44129       -2.85308
H          3.94807       -1.45160       -2.99197
H          4.01657       -0.27049       -4.31720
H          2.43727       -0.85025       -3.72371
H          3.09194       -0.68833       -0.64947
H          1.59643       -0.11933       -1.43344
H          2.56851        0.98793       -0.42033
