84

N          0.74536        2.80117        0.75462
C          2.18292        2.57503        0.43533
C          2.80665        1.50258        1.30909
Ga         4.76271        1.09314        0.89799
C          4.97070        0.69622       -1.09095
C          4.76505       -0.62068       -1.55466
C          4.80865       -0.95968       -2.90663
C          5.07934        0.03322       -3.86367
C          5.31310        1.34972       -3.43953
C          5.25583        1.66057       -2.07783
C          5.10652       -0.32370       -5.31773
C          3.71739       -0.59106       -6.01790
C          2.60586        0.52702       -6.01488
C          2.82220        1.91317       -6.75352
C          3.15548        1.90340       -8.29176
C          2.97241        3.29830       -9.00292
F          3.64865        4.26753       -8.36060
F          3.45810        3.20111      -10.25983
F          1.67688        3.64887       -9.08407
F          4.44657        1.53793       -8.47383
F          2.34731        1.02503       -8.94212
F          1.64067        2.58441       -6.60207
F          3.78649        2.61545       -6.11385
F          1.49492       -0.03978       -6.57438
F          2.31125        0.84520       -4.73130
F          3.93079       -0.93748       -7.32547
F          3.14060       -1.66322       -5.40285
F          5.73886        0.63623       -6.07773
F          5.79964       -1.50625       -5.52897
C          5.95603        2.63957        1.46374
C          7.22257        2.89023        0.89765
C          8.06691        3.90060        1.36997
C          7.69129        4.72754        2.44921
C          6.42536        4.48829        3.02056
C          5.58922        3.47784        2.53517
Si         8.79509        6.12162        3.04519
C          8.58443        7.61829        1.88441
C          9.37701        8.88592        2.23382
C          9.13396       10.04947        1.26403
C          9.91080       11.32168        1.61460
C          9.66153       12.48089        0.64473
C         10.43280       13.75613        0.99545
C         10.18813       14.91311        0.02161
C         10.96319       16.18229        0.38296
C          8.32420        6.64128        4.80700
C         10.61424        5.58445        3.04609
H          0.40613        3.63509        0.26631
H          0.67097        3.01005        1.75373
H          2.77767        3.50720        0.51809
H          2.23004        2.26888       -0.62309
H          2.23167        0.56661        1.21961
H          2.74742        1.80336        2.37236
H          5.20722       -0.24241        1.67475
H          4.56679       -1.41314       -0.82638
H          4.64490       -1.99104       -3.22414
H          5.54298        2.12420       -4.17236
H          5.44381        2.69619       -1.77860
H          7.56987        2.26951        0.06479
H          9.04193        4.04067        0.88949
H          6.08429        5.09727        3.86453
H          4.61764        3.33221        3.01979
H          7.50493        7.84878        1.85156
H          8.84008        7.28342        0.86372
H         10.45796        8.66032        2.25471
H          9.12079        9.21808        3.25536
H          8.05341       10.27565        1.23875
H          9.39790        9.72795        0.24126
H         10.99160       11.09462        1.64028
H          9.64518       11.64049        2.63835
H          8.58046       12.70483        0.61655
H          9.92986       12.16268       -0.37826
H         11.51394       13.53180        1.02751
H         10.16143       14.07782        2.01683
H          9.10825       15.13632       -0.01133
H         10.46103       14.59114       -0.99770
H         10.68281       16.54737        1.38262
H         10.77178       16.99350       -0.33378
H         12.04772       15.99537        0.39365
H          7.29376        7.02178        4.85589
H          8.99069        7.43401        5.17760
H          8.39801        5.78917        5.49762
H         10.93837        5.26136        2.04652
H         10.76444        4.73839        3.73194
H         11.27670        6.40230        3.36689
