39

F          5.11517        0.09197        1.54969
Al         3.74936        0.15128        0.51332
C          2.80002       -1.71527        0.53983
C          3.60286       -3.01630        0.34719
F          4.29906       -2.98575       -0.81951
F          4.49544       -3.18494        1.35513
F          2.82901       -4.14529        0.31253
F          2.09137       -1.91262        1.73635
F          1.81890       -1.74670       -0.47282
C          4.40007        0.54676       -1.35226
C          5.76632        0.79695       -1.59847
C          6.24910        1.12925       -2.86828
C          5.38213        1.22663       -3.97519
C          4.01374        0.97291       -3.74466
C          3.54378        0.64677       -2.46952
Si         6.02387        1.62427       -5.68682
C          6.25722       -0.00320       -6.66324
C          6.86082        0.17217       -8.06050
C          7.03229       -1.11782       -8.83362
F          5.85112       -1.76340       -9.04848
F          7.57964       -0.89066      -10.07037
F          7.85534       -2.00232       -8.20436
C          4.80281        2.71509       -6.64146
C          7.69663        2.51016       -5.59742
H          2.60567        1.18269        1.01881
H          6.47449        0.73143       -0.76605
H          7.31965        1.32100       -2.99526
H          3.29902        1.03674       -4.57253
H          2.47152        0.46370       -2.34393
H          5.27547       -0.49780       -6.73240
H          6.89262       -0.66761       -6.05700
H          7.85926        0.63240       -8.01139
H          6.23653        0.82353       -8.69120
H          3.81819        2.23338       -6.72608
H          5.15760        2.93524       -7.65931
H          4.65748        3.67295       -6.12223
H          8.46062        1.88409       -5.11444
H          7.60986        3.43726       -5.01313
H          8.06617        2.77933       -6.59802
