80

C          7.62847       -6.59701       -9.53418
C          6.73530       -7.03659       -8.37137
C          7.30204       -6.67276       -6.99564
C          6.39088       -7.07538       -5.83279
C          6.95701       -6.77160       -4.43121
C          7.18996       -5.29924       -4.10290
Nb         7.83533       -4.47775       -2.19401
C          6.33569       -3.60476       -0.70068
C          6.74177       -2.55183        0.39164
C          7.43533       -1.21367       -0.04505
C          7.49735       -0.10644        1.07672
F          6.28977        0.43692        1.32315
F          7.99848       -0.58179        2.23462
F          8.31216        0.89488        0.65541
F          8.73198       -1.45677       -0.39211
F          6.79375       -0.63429       -1.09216
F          5.63338       -2.16505        1.12498
F          7.60381       -3.15970        1.27018
F          5.32671       -2.97738       -1.47013
F          5.61419       -4.51405        0.08923
C          9.90948       -5.08220       -1.82142
C         10.54628       -5.97349       -2.71613
C         11.89320       -6.32670       -2.58213
C         12.69173       -5.79331       -1.55106
C         12.06682       -4.89597       -0.65673
C         10.71823       -4.56116       -0.78563
Si        14.51736       -6.19839       -1.45420
C         15.41785       -5.25890       -2.85476
C         15.14377       -3.74924       -2.82879
C         15.79761       -3.01011       -3.98165
C         15.48500       -1.47476       -4.10915
C         15.83282       -0.49073       -2.92723
C         17.32432       -0.27872       -2.43923
C         18.39172        0.21295       -3.48691
C         19.71633        0.77719       -2.84446
F         20.23290       -0.09060       -1.95383
F         20.61872        0.96708       -3.82933
F         19.50643        1.95593       -2.23460
F         18.74804       -0.81985       -4.28659
F         17.86986        1.20842       -4.24951
F         17.24925        0.67012       -1.45993
F         17.76821       -1.42940       -1.87402
F         15.35485        0.73048       -3.28753
F         15.15035       -0.89632       -1.81930
F         16.10455       -0.99018       -5.22543
F         14.13955       -1.34799       -4.28736
F         17.17016       -3.14485       -3.94762
F         15.39019       -3.53649       -5.18708
C         15.25518       -5.66753        0.20528
C         14.84506       -8.04194       -1.72379
H          7.19790       -6.87364      -10.50780
H          8.62500       -7.05933       -9.46598
H          7.77337       -5.50616       -9.53018
H          6.57330       -8.12737       -8.42133
H          5.73723       -6.57876       -8.48149
H          7.48922       -5.58661       -6.95613
H          8.28877       -7.15521       -6.86988
H          6.17594       -8.15756       -5.90644
H          5.41947       -6.56056       -5.94233
H          7.90132       -7.33441       -4.30929
H          6.26688       -7.18568       -3.67941
H          6.26306       -4.70950       -4.26147
H          7.96702       -4.84961       -4.76769
H          6.51863       -5.56272       -1.84348
H          7.91678       -5.32878       -0.67019
H          7.73325       -2.69913       -2.39011
H          9.98170       -6.41746       -3.54368
H         12.32633       -7.02960       -3.30261
H         12.64036       -4.46316        0.16913
H         10.27626       -3.88862       -0.04425
H         15.07243       -5.68182       -3.81106
H         16.50051       -5.45384       -2.79340
H         15.51209       -3.30179       -1.89495
H         14.06211       -3.55075       -2.87343
H         15.13279       -4.59106        0.39061
H         16.33122       -5.89303        0.24015
H         14.77158       -6.20033        1.03633
H         14.42326       -8.38616       -2.67882
H         14.38613       -8.64004       -0.92410
H         15.92378       -8.25714       -1.73591
