54

N          3.62858       -1.52947       -0.89167
Ga         2.63829       -0.09980       -0.01233
C          3.76793        1.61276        0.10249
C          4.79531        1.87986       -0.82552
C          5.55992        3.04639       -0.79204
C          5.31870        4.00960        0.20275
C          4.30527        3.77957        1.14599
C          3.55650        2.60197        1.08363
C          6.15630        5.24882        0.26132
C          5.87336        6.37679       -0.80494
C          4.44889        7.04623       -0.88854
C          3.86823        7.91088        0.30677
C          4.70228        9.14418        0.82018
C          3.87201       10.16821        1.68540
F          3.20003        9.54658        2.67143
F          4.73028       11.04871        2.24445
F          2.99944       10.85981        0.93081
F          5.72228        8.70850        1.59632
F          5.20768        9.84365       -0.22978
F          2.67469        8.39653       -0.15310
F          3.61113        7.10271        1.36133
F          4.47905        7.87095       -1.97896
F          3.52537        6.08202       -1.12008
F          6.77654        7.39262       -0.63616
F          6.08654        5.84361       -2.04229
F          6.08426        5.86623        1.49246
F          7.49563        4.95213        0.05315
C          2.10093       -0.71198        1.86206
C          2.52285       -2.15078        2.16785
C          1.98097       -2.70255        3.49393
C          2.39773       -4.14786        3.75968
N          1.83981       -4.63009        5.01954
C          2.04575       -5.91864        5.46872
N          2.81347       -6.82787        4.96667
N          1.29394       -6.21793        6.62238
H          4.62273       -1.53887       -0.65183
H          3.59466       -1.42167       -1.90746
H          1.35809        0.21386       -0.93411
H          5.00998        1.13779       -1.60206
H          6.35448        3.20819       -1.52321
H          4.11575        4.51321        1.93095
H          2.77877        2.45023        1.83947
H          1.00161       -0.62920        1.93268
H          2.51096       -0.02962        2.62843
H          3.62518       -2.22181        2.17979
H          2.20747       -2.81351        1.34401
H          0.87643       -2.64226        3.47949
H          2.31763       -2.06626        4.33060
H          3.49711       -4.21463        3.81485
H          2.07802       -4.78625        2.91327
H          0.94376       -4.22155        5.27084
H          3.19574       -6.52486        4.06706
H          1.31778       -5.48037        7.32325
H          1.59969       -7.10753        7.00884
