10

O          1.10900        0.01207       -0.16895
C          2.35869        0.10073       -0.01003
O          3.00093        0.63370        0.93855
C          3.21012       -0.54840       -1.16315
C          4.72767       -0.45302       -0.99445
H          2.89219       -0.07214       -2.10679
H          2.89248       -1.60225       -1.24612
H          5.04540        0.59698       -0.92055
H          5.27061       -0.92401       -1.83426
H          5.04621       -0.93695       -0.05994
