68

C          0.89936       -0.81319        1.59876
C          2.22680       -0.35053        0.98974
C          3.36939       -0.26461        2.00730
C          4.70373        0.23071        1.42466
C          5.85796        0.24234        2.42127
Ta         7.87578        0.98501        2.16354
C          9.74807       -0.14161        1.54738
F         10.91713        0.39901        2.11669
F          9.71855       -1.46500        2.03963
F         10.10226       -0.31455        0.22574
C          8.71126        0.45983        4.14216
C          9.49208        1.40325        4.84520
C          9.89301        1.19807        6.16843
C          9.52148        0.03433        6.87205
C          8.73790       -0.91193        6.18234
C          8.35142       -0.70280        4.85698
Si        10.19926       -0.30980        8.58299
C         12.05064       -0.74361        8.40547
C         12.29324       -1.74806        7.27255
C         13.66874       -2.39940        7.18733
C         14.82494       -1.65971        6.41188
C         15.40505       -0.27303        6.89439
C         16.07731       -0.09385        8.31305
C         17.34989       -0.93423        8.73597
C         18.65383       -0.85154        7.85758
F         18.99772        0.42644        7.61335
F         19.65864       -1.43741        8.54569
F         18.51246       -1.49937        6.69303
F         17.69172       -0.46236        9.97047
F         17.01602       -2.23974        8.86001
F         16.43553        1.22036        8.38196
F         15.14762       -0.32023        9.27501
F         16.34755        0.08768        5.97573
F         14.40688        0.64820        6.84098
F         15.88670       -2.51513        6.32620
F         14.37377       -1.42302        5.14970
F         14.15369       -2.74107        8.43092
F         13.54401       -3.58575        6.49059
C         10.07874        1.19115        9.72572
C          9.32357       -1.77726        9.39675
H          0.09959       -0.87271        0.84543
H          0.56222       -0.12375        2.38822
H          0.99812       -1.80927        2.05757
H          2.08870        0.63589        0.51415
H          2.51845       -1.03684        0.17628
H          3.52679       -1.25972        2.46204
H          3.06962        0.39821        2.83943
H          4.55680        1.24292        1.00794
H          4.98907       -0.40490        0.56972
H          6.03105       -0.78570        2.80568
H          5.58968        0.85264        3.32155
H          7.61519       -0.02278        0.73732
H          7.56572        2.76723        2.19779
H          8.65937        1.78587        0.79304
H          9.81633        2.32173        4.34454
H         10.51419        1.95717        6.65623
H          8.42706       -1.83394        6.68331
H          7.76208       -1.48302        4.36621
H         12.40884       -1.14600        9.36564
H         12.59300        0.19427        8.23028
H         12.06309       -1.30399        6.29314
H         11.61303       -2.60894        7.37326
H         10.55300        2.07409        9.27516
H         10.57548        0.99341       10.68706
H          9.02808        1.44191        9.92797
H          9.45813       -2.70940        8.83054
H          8.24348       -1.59340        9.48244
H          9.72244       -1.94017       10.40873
