48

C          9.35010       -2.65888        4.59671
C          8.67466       -1.28535        4.63448
C          8.21429       -0.79812        3.25699
C          7.53354        0.57317        3.27522
C          7.08607        1.04710        1.88555
C          6.37276        2.39676        1.90493
Nb         7.36591        4.25855        2.45092
S          5.85087        5.92037        3.59585
O          5.42826        7.31733        3.37415
O          5.04566        4.82863        2.89977
C          5.23926        5.67973        5.41624
F          5.22227        4.39545        5.82814
F          6.04887        6.37431        6.26668
F          3.98381        6.17045        5.55944
C          9.32245        4.56819        3.41589
C          9.46648        5.20208        4.79069
O          9.26171        4.20482        5.79753
C          9.33866        4.72287        7.10827
C          8.95674        3.59184        8.05368
O          9.19997        4.01172        9.39549
C          8.82971        3.02196       10.33249
H          9.67747       -2.98337        5.59553
H         10.23641       -2.64608        3.94362
H          8.66596       -3.42698        4.20377
H          9.36738       -0.54370        5.06596
H          7.80731       -1.31896        5.31568
H          7.52375       -1.54439        2.82170
H          9.08510       -0.76233        2.57733
H          8.21597        1.32172        3.71272
H          6.65825        0.54116        3.94807
H          6.43156        0.26284        1.45132
H          7.97047        1.11008        1.22991
H          5.43149        2.35600        2.47884
H          6.09741        2.71699        0.87286
H          7.01046        5.78261        1.55964
H          7.11228        3.87634        4.15436
H          8.58961        3.55696        1.28340
H          9.69882        5.28566        2.65050
H          9.98523        3.69170        3.33848
H          8.74084        6.02695        4.93591
H         10.48299        5.63548        4.93956
H          8.64918        5.57938        7.24150
H         10.36445        5.07719        7.34598
H          9.56053        2.69389        7.81507
H          7.89116        3.32900        7.91494
H          9.05019        3.41802       11.33294
H          9.40015        2.08344       10.18403
H          7.75056        2.78141       10.27016
