20

F          0.88816       -0.16555        0.00657
N          2.42409       -0.00424       -0.04959
C          2.85243       -1.29185        0.37188
C          4.37800       -1.24489        0.35823
O          4.91524       -2.51654        0.77884
C          6.31850       -2.53454        0.78250
C          6.74453       -3.92259        1.24117
O          8.17069       -3.98969        1.26239
C          8.63579       -5.25580        1.67617
H          2.53985       -2.15674       -0.28801
H          2.53798       -1.59844        1.41483
H          4.74016       -0.45011        1.03908
H          4.74253       -1.01141       -0.66110
H          6.73743       -1.76724        1.46894
H          6.73466       -2.32889       -0.22743
H          6.33232       -4.68569        0.55220
H          6.33327       -4.12490        2.24952
H          9.73411       -5.22198        1.66685
H          8.29601       -6.06244        0.99549
H          8.29336       -5.50616        2.70057
