35

S          1.13745        0.28578        0.64404
C          2.96040        0.04620        0.54293
C          3.26899       -0.93643       -0.58302
C          4.77942       -1.16787       -0.71733
C          5.18863       -2.31393       -1.66288
C          4.73759       -3.75757       -1.10670
O          4.29906       -3.78727        0.07213
O          4.90782       -4.70339       -1.91879
C          4.49322       -2.19691       -3.05762
C          4.88297       -0.99935       -3.88884
O          4.34453        0.08929       -3.88158
O          5.96709       -1.18662       -4.72759
C          6.72727       -2.31882       -1.86708
C          7.65512       -2.42828       -0.63467
C          7.60972       -3.79033        0.07108
C          9.09471       -2.11046       -1.06946
H          1.14078        1.20816        1.63571
H          3.31854       -0.34670        1.50470
H          3.43181        1.02173        0.35485
H          2.85792       -0.53711       -1.52324
H          2.78860       -1.90214       -0.36611
H          5.17160       -1.41750        0.27964
H          5.26069       -0.22576       -1.04188
H          3.40647       -2.15175       -2.91043
H          4.71752       -3.14261       -3.57626
H          6.29997       -2.08881       -4.57479
H          7.01380       -1.38687       -2.38805
H          6.96422       -3.16255       -2.54310
H          7.35284       -1.65424        0.09247
H          7.86705       -4.59790       -0.63204
H          6.61410       -4.01044        0.47577
H          8.33793       -3.81374        0.89801
H          9.44562       -2.84773       -1.81068
H          9.78677       -2.14718       -0.21391
H          9.17104       -1.11335       -1.52981
