20

N          1.13462       -0.56378       -0.30336
B          2.20676        0.20187        0.36130
C          3.24966       -0.69166        1.19688
C          2.77828       -1.84133        1.86833
C          3.60600       -2.63090        2.67211
C          4.95912       -2.30890        2.84990
C          5.44418       -1.17231        2.18549
C          4.61192       -0.38710        1.38296
C          5.85228       -3.14217        3.73871
Br         3.47420        1.34624       -1.30424
H          1.45736       -1.32034       -0.90505
H          0.47489        0.00349       -0.82863
H          1.81605        1.20152        0.93509
H          1.72684       -2.11601        1.74962
H          3.19533       -3.51670        3.16917
H          6.50064       -0.90415        2.29264
H          5.02246        0.47646        0.85486
H          5.65967       -4.21902        3.61428
H          5.69712       -2.90968        4.80615
H          6.91463       -2.96293        3.51820
