51

N          5.64900        1.24363       -1.87419
C          4.28248        0.72688       -2.05940
C          4.01812       -0.48290       -1.16168
C          4.17709       -0.21610        0.34007
C          3.94945       -1.46002        1.19085
Sb         5.67114       -2.92119        1.23871
C          6.81050       -1.38579        2.60389
C          6.53960       -1.26517        3.97147
C          7.24894       -0.36378        4.78591
C          8.24367        0.45107        4.24119
C          8.52244        0.34519        2.87361
C          7.81417       -0.56310        2.07251
C          9.56645        1.25470        2.28858
F         10.67136        1.37223        3.09406
F         10.01638        0.84428        1.07323
F          9.10444        2.53576        2.11440
C          6.90957       -0.23876        6.24426
F          6.59331       -1.43525        6.81665
F          7.92918        0.28929        6.98853
F          5.82801        0.57922        6.46023
C          7.46746       -4.27467        1.46103
C          7.47248       -5.00151        2.79497
C          8.71464       -5.86348        3.06892
C          8.64815       -6.59240        4.40940
N          9.86400       -7.39593        4.64550
H          5.90622        1.87283       -2.63471
H          6.31499        0.46800       -1.88781
H          4.06453        0.43801       -3.10879
H          3.57862        1.53892       -1.80158
H          4.69929       -1.30103       -1.45319
H          2.99549       -0.84729       -1.36125
H          3.48498        0.59989        0.62751
H          5.18872        0.18286        0.52674
H          3.06620       -2.03399        0.86493
H          3.82150       -1.20460        2.25303
H          4.83403       -4.10233        0.16310
H          4.95917       -3.61471        2.75582
H          6.50469       -2.07892       -0.14778
H          5.76546       -1.89630        4.42216
H          8.79943        1.14579        4.86986
H          8.05128       -0.63453        1.00570
H          8.34179       -3.61445        1.35136
H          7.43821       -4.96908        0.60603
H          6.57130       -5.63652        2.87054
H          7.37386       -4.26275        3.61168
H          9.62147       -5.23718        3.04556
H          8.83073       -6.60683        2.25822
H          7.71521       -7.19117        4.44236
H          8.57453       -5.85205        5.22285
H          9.97402       -8.07107        3.88545
H          9.76203       -7.94601        5.50028
