46

C          2.56290       -3.51737        2.25100
C          3.58420       -2.95319        1.26081
C          2.93932       -2.18516        0.10177
C          3.94503       -1.65202       -0.92565
Nb         4.89524       -2.83502       -2.51058
C          3.20075       -3.51036       -3.78666
C          2.31493       -2.39460       -4.37865
C          3.00134       -1.72185       -5.57624
C          0.91926       -2.90681       -4.78184
C          7.11516       -3.24639       -2.66479
C          7.83571       -4.44909       -2.03927
C          7.50404       -5.75378       -2.77313
C          8.18874       -6.97511       -2.21940
C          7.81288       -8.31123       -2.93140
F          6.49114       -8.56990       -2.82027
F          8.11814       -8.25959       -4.25229
F          8.48325       -9.36462       -2.40089
F          9.57164       -6.88795       -2.31331
F          7.90583       -7.17303       -0.88385
H          3.05004       -4.05800        3.07693
H          1.87826       -4.22233        1.75347
H          1.94507       -2.71910        2.69382
H          4.20609       -3.75950        0.84281
H          4.28184       -2.28039        1.79034
H          2.33040       -1.36295        0.53226
H          2.21042       -2.85253       -0.39600
H          4.74990       -1.08253       -0.42046
H          3.43756       -0.92150       -1.60269
H          5.01034       -4.59459       -2.67305
H          5.68974       -1.49019       -3.49055
H          5.39058       -3.67535       -1.03004
H          2.61765       -4.10959       -3.05415
H          3.48652       -4.22256       -4.58143
H          2.15311       -1.61284       -3.60968
H          3.17160       -2.45997       -6.37816
H          3.98151       -1.31504       -5.28688
H          2.38913       -0.90637       -5.99447
H          1.00858       -3.68577       -5.55713
H          0.28256       -2.09949       -5.18394
H          0.40009       -3.35522       -3.92148
H          7.49993       -2.31965       -2.19120
H          7.40339       -3.15420       -3.73112
H          7.53090       -4.54874       -0.98653
H          8.93429       -4.31014       -2.05059
H          7.78100       -5.67574       -3.83712
H          6.41112       -5.90041       -2.73335
