38

Cl         3.72325        1.59694       -1.59873
Ga         2.78504        0.07226       -0.15165
C          3.89398        0.24136        1.54751
C          5.02601        1.07631        1.62790
C          5.81166        1.15817        2.77796
C          5.47574        0.39963        3.91224
C          4.35064       -0.43671        3.86851
C          3.58605       -0.50688        2.70070
C          6.33007        0.47234        5.14196
C          6.26093        1.79222        6.00389
C          4.88266        2.27361        6.59804
C          4.10845        1.42163        7.68766
C          4.84533        1.06734        9.03382
C          3.87965        0.61740       10.19717
F          3.03776       -0.35017        9.78968
F          4.62956        0.13079       11.20979
F          3.16114        1.65056       10.67107
F          5.70921        0.04691        8.82101
F          5.53307        2.14474        9.49567
F          3.01428        2.17480        8.01540
F          3.67056        0.27005        7.12685
F          5.11536        3.49726        7.16007
F          4.00424        2.44115        5.57962
F          7.13139        1.68647        7.05564
F          6.68831        2.82486        5.22282
F          6.07172       -0.56263        6.01461
F          7.67485        0.37959        4.81679
C          0.84538        0.52902        0.19498
N          0.65258        1.62584        1.16721
H          2.97570       -1.36060       -0.82457
H          5.29978        1.66979        0.75080
H          6.69420        1.80014        2.79467
H          4.08605       -1.03937        4.73826
H          2.72543       -1.18407        2.69487
H          0.35329       -0.41980        0.49733
H          0.39800        0.81965       -0.76972
H          1.31653        1.53642        1.93744
H         -0.27991        1.59786        1.58532
