50

S          1.57125        1.17740        1.04404
C          3.23156        0.65342        0.40190
C          3.75180        1.68540       -0.60557
C          5.14242        1.34996       -1.14551
In         5.91388        2.89181       -2.64221
C          4.27355        2.89744       -4.22648
C          4.59578        3.34883       -5.63503
O          5.47477        2.40557       -6.28038
C          5.86614        2.83432       -7.56158
C          6.64360        1.73836       -8.26566
O          5.74663        0.77401       -8.81571
C          6.42881       -0.32725       -9.37625
C          7.98069        2.26902       -3.33384
C          8.42387        0.80147       -3.20737
C          7.87868       -0.13856       -4.29209
C          8.50279       -1.53978       -4.24684
C          8.09491       -2.46312       -5.40104
C          8.81668       -3.81493       -5.38065
H          1.35258        0.11962        1.86139
H          3.12757       -0.33276       -0.07290
H          3.92103        0.56635        1.25314
H          3.75930        2.67582       -0.11813
H          3.02593        1.75945       -1.43400
H          5.12159        0.37243       -1.66011
H          5.86065        1.25682       -0.31231
H          5.98840        4.52049       -1.88023
H          3.51002        3.58653       -3.82696
H          3.79887        1.90204       -4.26848
H          5.08281        4.34790       -5.63029
H          3.69186        3.44062       -6.28520
H          6.50978        3.73911       -7.49391
H          4.98499        3.10622       -8.18251
H          7.32810        1.25542       -7.54241
H          7.25641        2.18017       -9.07932
H          5.66970       -1.01013       -9.78134
H          7.02958       -0.86770       -8.61944
H          7.10582       -0.01790      -10.19917
H          8.65635        2.89731       -2.72974
H          8.11004        2.60044       -4.37903
H          8.14093        0.39556       -2.21848
H          9.53193        0.72467       -3.24794
H          8.08125        0.31039       -5.28146
H          6.78031       -0.20615       -4.21733
H          8.25243       -2.02795       -3.28750
H          9.60422       -1.43798       -4.25135
H          8.30336       -1.95477       -6.35860
H          7.00432       -2.62480       -5.37770
H          9.90813       -3.68077       -5.44230
H          8.51296       -4.45668       -6.22147
H          8.60837       -4.36504       -4.45004
