54

C          8.99622        3.45918        1.13505
C          7.69093        4.11125        0.66792
C          6.45157        3.41873        1.23811
Nb         5.78916        1.34595        0.76349
C          6.79734       -0.23566       -0.42835
C          8.09179       -0.15053       -0.98159
C          8.69141       -1.21577       -1.65892
C          8.02511       -2.44525       -1.83830
C          6.72278       -2.54052       -1.29581
C          6.13808       -1.47326       -0.61609
Si         8.78933       -3.87050       -2.75713
C          8.70241       -5.43763       -1.66140
C          9.23075       -6.71453       -2.32204
C          9.14462       -7.94891       -1.45135
F          7.86555       -8.24846       -1.08685
F          9.63055       -9.05650       -2.09895
F          9.86374       -7.83247       -0.29899
C          7.86596       -4.24779       -4.37324
C         10.60744       -3.53157       -3.17517
C          3.70864        1.34674        1.45857
C          4.06383        1.44796        2.96142
C          3.30567        2.55235        3.67904
O          2.28290        2.35313        4.33547
N          3.82873        3.81230        3.52527
H          9.87958        3.96582        0.71622
H          9.03661        2.40170        0.83471
H          9.08115        3.48932        2.23304
H          7.63838        4.06833       -0.43136
H          7.72100        5.18543        0.94149
H          5.53939        3.96583        0.90885
H          6.48869        3.48540        2.35144
H          6.39064        2.05170       -0.73197
H          6.72415        0.20141        1.82932
H          4.82810        0.98894       -0.66619
H          8.65090        0.78687       -0.89635
H          9.70028       -1.07950       -2.06290
H          6.14811       -3.46750       -1.41074
H          5.12171       -1.60547       -0.22697
H          7.65280       -5.57769       -1.35846
H          9.26226       -5.22814       -0.73659
H         10.29009       -6.61409       -2.60370
H          8.67449       -6.95117       -3.24172
H          6.80616       -4.46554       -4.17557
H          8.29429       -5.10120       -4.92072
H          7.89991       -3.37157       -5.03651
H         11.19838       -3.35066       -2.26593
H         10.70237       -2.64334       -3.81605
H         11.06179       -4.37603       -3.71457
H          3.06398        0.48900        1.23800
H          3.20414        2.25193        1.08414
H          5.16455        1.61651        3.11331
H          3.85035        0.50484        3.47754
H          4.60961        3.99221        2.90027
H          3.26839        4.59377        3.84378
