36

C          1.15118        0.50665       -0.02702
C          2.51272       -0.04155        0.43754
Al         3.29455       -1.36764       -0.86881
C          2.00395       -2.95066       -1.00120
C          2.22741       -3.89514        0.02834
C          1.48278       -5.06702        0.17715
C          0.44667       -5.34299       -0.72102
C          0.17440       -4.43241       -1.73655
C          0.93451       -3.25439       -1.88300
C          0.47601       -2.37610       -3.03127
O         -0.56563       -2.60676       -3.63794
O          1.22091       -1.32486       -3.40108
C          5.21700       -2.00792       -0.59212
C          5.72439       -2.36307        0.81550
C          5.75760       -1.18511        1.79598
C          5.51558       -3.15133       -1.57642
H          0.68080        1.20013        0.69432
H          0.43028       -0.30720       -0.20475
H          1.24289        1.04763       -0.98185
H          2.39731       -0.53085        1.42259
H          3.21890        0.79285        0.60213
H          3.32294       -0.67022       -2.38140
H          3.02929       -3.71025        0.75077
H          1.71022       -5.76407        0.98863
H         -0.14454       -6.25666       -0.62688
H         -0.63788       -4.60203       -2.44492
H          2.08269       -1.19633       -2.87523
H          5.80804       -1.12942       -0.92679
H          6.75036       -2.78703        0.74677
H          5.11437       -3.17700        1.24995
H          6.37624       -0.36489        1.39769
H          6.17993       -1.47773        2.77018
H          4.75369       -0.77498        1.97249
H          4.95529       -4.06536       -1.31892
H          6.58987       -3.42754       -1.59188
H          5.22949       -2.88756       -2.60675
