24

F         -0.24536       -1.80640       -0.09327
C          1.07392       -1.95193        0.26420
O          1.85662       -2.41418       -0.69722
C          1.93625       -1.59855       -1.92979
B          2.98853       -2.27422       -2.96114
C          3.67762       -1.14170       -3.92970
C          4.97693       -0.51694       -3.31855
C          5.57362        0.75167       -4.02407
F          5.77873        0.55047       -5.34013
F          4.77805        1.82971       -3.87441
F          6.77495        1.05468       -3.46254
F          4.74794       -0.14200       -2.02025
F          5.96545       -1.45672       -3.31609
F          4.05531       -1.61481       -5.17615
F          2.82152       -0.06397       -4.18507
S          2.06510       -3.54101       -4.11010
O          0.90456       -2.98330       -4.79092
O          2.93412       -4.44506       -4.84303
F          1.39473       -4.50870       -2.93074
F          1.44913       -0.71649        0.75265
F          1.10845       -2.81246        1.31285
H          2.26539       -0.59327       -1.63117
H          0.92078       -1.51625       -2.34398
H          3.83987       -2.93970       -2.41900
