50

C          1.08525       -0.55475       -0.16587
C          2.47224        0.03238       -0.45144
C          3.03691        0.88344        0.69417
C          4.41138        1.50424        0.42412
B          5.07389        2.33586        1.69191
C          4.09087        3.56459        2.11637
C          3.95896        4.74117        1.34299
C          3.08366        5.77424        1.67915
C          2.26197        5.69648        2.82407
C          2.38067        4.52975        3.60982
C          3.26965        3.50957        3.26392
Si         1.15924        7.10668        3.34080
C          2.07745        8.22968        4.58704
C          2.66552        7.46309        5.77649
C          3.37778        8.33522        6.78564
F          4.42835        9.01937        6.24947
F          2.55254        9.27486        7.34603
F          3.88026        7.60255        7.82482
C          0.66890        8.20820        1.88172
C         -0.41861        6.48323        4.18530
C          6.56794        2.88172        1.28444
N          7.26913        3.56580        2.40680
H          0.71118       -1.16727       -1.00172
H          0.34826        0.24300        0.01886
H          1.10264       -1.19256        0.73242
H          2.42906        0.64705       -1.36840
H          3.18008       -0.78593       -0.67479
H          3.09610        0.26276        1.60809
H          2.31191        1.68364        0.93223
H          4.33017        2.15966       -0.46895
H          5.11270        0.69638        0.13386
H          5.16214        1.56797        2.66662
H          4.57045        4.84637        0.44070
H          3.03603        6.65843        1.03425
H          1.76702        4.41297        4.51016
H          3.34046        2.62148        3.89914
H          1.38670        9.01381        4.93829
H          2.88638        8.73905        4.03961
H          3.38971        6.70767        5.43622
H          1.88627        6.92396        6.33705
H          1.55192        8.64294        1.39272
H          0.02761        9.03634        2.21778
H          0.11757        7.63091        1.12647
H         -0.19648        5.85438        5.05900
H         -1.01043        5.87484        3.48717
H         -1.04129        7.32442        4.52417
H          6.50151        3.54234        0.38820
H          7.19465        2.02578        0.96870
H          6.57731        4.09017        2.94664
H          7.93393        4.25994        2.05824
