51

N          2.69355        1.15810       -2.76577
C          2.27112        1.63238       -1.42798
B          3.02528        0.79651       -0.21887
C          2.29518        1.02022        1.23315
C          1.62072        2.24978        1.42628
C          0.99093        2.60791        2.61895
C          1.00330        1.72564        3.70333
C          1.65750        0.50687        3.56355
C          2.29840        0.14752        2.36106
C          2.96419       -1.21208        2.41919
O          3.04464       -1.85852        3.45623
O          3.46952       -1.71943        1.28209
C          4.60560        1.18404       -0.18242
C          5.12164        2.16700        0.68962
C          6.45033        2.58554        0.64909
C          7.33463        2.02032       -0.28365
C          6.86152        1.02790       -1.15576
C          5.52718        0.62726       -1.09531
C          8.75168        2.49795       -0.35067
C          9.74702        1.99992        0.76689
C         10.06705        0.46289        0.90986
C         10.85276       -0.32983       -0.21795
C         12.26174        0.20603       -0.67351
C         13.13755       -0.85376       -1.44519
F         12.44920       -1.41632       -2.45550
F         14.21351       -0.22147       -1.96299
F         13.58076       -1.82306       -0.62523
F         12.09687        1.26061       -1.50649
F         12.99036        0.59806        0.40474
F         11.04698       -1.58156        0.29852
F         10.06809       -0.44958       -1.31435
F         10.80823        0.33393        2.05135
F          8.90642       -0.21279        1.08452
F         10.94871        2.64087        0.61782
F          9.23503        2.37221        1.97457
F          9.34796        2.18953       -1.55550
F          8.81055        3.87866       -0.22864
H          2.09402        1.54489       -3.49754
H          2.57865        0.14295       -2.80328
H          1.17236        1.55738       -1.27942
H          2.51806        2.70902       -1.37613
H          2.91809       -0.38578       -0.62111
H          1.59151        2.96118        0.59842
H          0.48985        3.57634        2.70044
H          0.51251        1.98580        4.64365
H          1.70041       -0.20900        4.38558
H          3.29272       -1.08779        0.51929
H          4.45526        2.62610        1.42409
H          6.80142        3.36101        1.33143
H          7.53454        0.58157       -1.88880
H          5.17975       -0.13680       -1.79345
