29

F          1.14813        0.71692        0.91317
Nb         2.84336        0.46840        0.05547
S          3.70117       -0.23864       -2.19113
O          2.74758        0.00344       -3.29148
O          5.08489        0.27790       -2.34817
C          3.99280       -2.17838       -2.37649
C          4.97878       -2.55011       -3.53404
C          4.93288       -4.05306       -3.99869
F          5.05934       -4.90046       -2.95556
F          3.78957       -4.34416       -4.64969
F          5.96119       -4.29277       -4.85219
F          4.72474       -1.80646       -4.64409
F          6.25753       -2.31708       -3.13170
F          4.49853       -2.71665       -1.23250
F          2.79051       -2.78121       -2.62387
C          4.10012        0.95264        1.77514
C          5.61838        0.76948        1.82257
C          6.33024        1.46363        0.66056
S          8.15617        1.31599        0.70329
H          3.12391        1.75386       -1.15518
H          3.96845       -0.84349        0.30930
H          2.22497       -1.11443       -0.35849
H          3.62745        0.39580        2.60556
H          3.83162        2.02457        1.92632
H          5.85988       -0.30345        1.79684
H          6.03135        1.16406        2.77182
H          6.06589        2.53033        0.61513
H          6.04962        1.01462       -0.30554
H          8.33687        1.93158        1.89677
