38

C          0.56018        2.37690       -0.99889
O          1.91937        2.47242       -0.63592
C          2.39133        3.81711       -0.67366
C          3.88217        3.86548       -0.40181
O          4.60239        3.47166       -1.54551
C          6.04235        3.59455       -1.34359
C          6.82253        3.28440       -2.59433
Ga         8.79970        3.68976       -2.28090
C          9.87355        2.01575       -1.55753
C          9.60237        0.60446       -2.11183
F          9.78871        0.56407       -3.45779
F         10.41085       -0.36726       -1.58002
F          8.32377        0.22059       -1.86205
F         11.25604        2.20745       -1.74963
F          9.71860        1.87587       -0.17062
C          9.88904        4.50773       -3.80014
C         10.35035        3.66565       -4.98541
S          8.93138        3.11711       -6.00393
C          9.83837        2.21766       -7.28980
H          0.27685        1.31783       -0.93394
H          0.38529        2.73229       -2.03346
H         -0.09161        2.96400       -0.31912
H          1.85551        4.42019        0.09011
H          2.18861        4.26380       -1.66721
H          4.11597        3.21877        0.47118
H          4.14574        4.90701       -0.11065
H          6.33162        2.91954       -0.51339
H          6.24520        4.62910       -0.99984
H          6.47925        3.92718       -3.42066
H          6.67207        2.23994       -2.90219
H          8.92962        4.70219       -1.03470
H         10.79179        4.88497       -3.29126
H          9.35135        5.40078       -4.16287
H         10.88261        2.76401       -4.64389
H         11.02631        4.22075       -5.66348
H          9.09948        1.80607       -7.98980
H         10.41518        1.38706       -6.85756
H         10.51851        2.88306       -7.84296
