36

N          2.55986        1.52678        0.98395
C          2.80604        0.33132        0.19903
Nb         2.92794       -1.67532        1.04318
S          1.48632       -2.78895        2.75672
O          2.26150       -2.71699        4.02209
O          0.05567       -2.43604        2.80047
C          1.25737       -4.75382        2.58216
C          2.54827       -5.61725        2.70826
C          2.43035       -7.09260        2.16293
C          3.57339       -8.07086        2.61902
F          4.79286       -7.55475        2.37230
F          3.48527       -8.36664        3.92921
F          3.46291       -9.23213        1.92700
F          1.25876       -7.65130        2.57910
F          2.44746       -7.08026        0.80403
F          3.56325       -5.02361        2.01075
F          2.91887       -5.69391        4.01736
F          0.39786       -5.14123        3.56897
F          0.66310       -5.03219        1.38210
C          4.99586       -2.06337        1.58644
C          6.16213       -1.08900        1.41961
C          7.51182       -1.64325        1.90261
H          3.07050        2.34929        0.65446
H          2.75689        1.38143        1.97310
H          3.91753        0.06608        0.05873
H          2.42213        0.48536       -0.81670
H          2.75190       -1.71941       -0.71117
H          2.18198       -3.09269        0.30367
H          2.01532       -0.64432        2.16404
H          5.16056       -2.98521        0.98438
H          4.90583       -2.39563        2.64032
H          5.94590       -0.15754        1.97003
H          6.25166       -0.79627        0.36006
H          7.46664       -1.90517        2.97060
H          8.32801       -0.91540        1.76615
H          7.77863       -2.55874        1.35265
