17

O          3.43925        0.32594       -3.17975
C          2.80719        0.00274       -1.98835
O          2.01668       -0.92094       -1.99232
C          3.16402        0.86797       -0.82921
Ga         5.14616        1.13530       -0.37055
S          5.88458       -0.99641        0.61034
O          5.24181       -1.38382        1.86603
O          6.17200       -2.05758       -0.35469
F          7.44814       -0.51358        1.11519
C          6.33448        1.30967       -1.98143
H          4.17855        0.92735       -2.97057
H          2.59985        0.54603        0.05276
H          2.87447        1.90662       -1.06631
H          5.31940        2.14030        0.83193
H          6.36945        0.37835       -2.56368
H          7.35780        1.53552       -1.65310
H          6.01857        2.13200       -2.64525
