23

Cl         2.33987        1.83052        0.24517
Ta         3.89616        0.06233        0.51372
S          5.75052       -1.28038        1.40565
O          4.40341       -1.63950        2.03705
O          6.61766       -2.38046        0.95824
C          6.72748       -0.66203        2.95810
F          7.64771        0.26196        2.56540
F          5.95331       -0.09958        3.90509
F          7.39838       -1.68710        3.53415
C          5.05883        0.84556       -1.18662
C          5.86809       -0.02511       -2.15645
C          4.93741       -0.77231       -3.10974
S          5.76112       -1.93721       -4.25843
H          4.37915       -1.40514       -0.36925
H          4.58181        0.86955        1.95326
H          2.46504       -0.98719        0.41444
H          5.73986        1.51740       -0.61800
H          4.40205        1.52617       -1.75756
H          6.48095       -0.75663       -1.61019
H          6.56536        0.59009       -2.75857
H          4.32402       -0.07187       -3.69551
H          4.25434       -1.40962       -2.52771
H          6.54113       -1.02332       -4.88518
