39

N          3.03733       -1.04316        0.93706
C          2.35079        0.12418        0.58209
N          1.07209        0.22896        0.39818
N          3.15259        1.23187        0.39883
C          4.57515        1.18370        0.07207
C          5.15606        2.59196       -0.03916
C          6.65510        2.56598       -0.34204
C          7.26592        3.97211       -0.39882
C          8.77586        3.89926       -0.70154
S          9.31048        5.74265       -0.70219
O          9.21136        6.15113       -2.11560
O          8.66721        6.57607        0.30253
C         11.22287        5.81079       -0.31464
C         11.95362        6.89388       -1.18392
C         13.42010        7.22814       -0.71646
F         14.16316        6.11292       -0.58484
F         14.01088        8.01679       -1.64864
F         13.43335        7.89644        0.45134
F         12.04698        6.47268       -2.47096
F         11.26225        8.06647       -1.14329
F         11.41013        6.13107        0.98192
F         11.78229        4.61064       -0.58472
C          9.53528        3.10612        0.44655
O          9.74765        3.81962        1.45790
O          9.74309        1.90163        0.20920
O          9.05810        3.42436       -1.98576
H          2.45080       -1.74024        1.38168
H          3.92479       -0.91646        1.41603
H          0.59474       -0.64070        0.64980
H          2.63070        1.99555       -0.02264
H          4.76157        0.62466       -0.86449
H          5.11971        0.65360        0.87182
H          4.96875        3.13068        0.90432
H          4.61795        3.14492       -0.83058
H          6.84197        2.04948       -1.29676
H          7.18416        1.98009        0.42481
H          7.12769        4.48940        0.56099
H          6.75826        4.56907       -1.17941
H          8.75999        4.11199       -2.61474
