45

C          2.01355        1.38906        2.06025
C          3.05452        0.80269        1.09934
C          3.55576       -0.59736        1.49820
C          4.55406       -1.22395        0.51944
In         5.31942       -3.28508        1.06882
C          4.00076       -4.06122        2.73618
C          2.61457       -4.25113        2.57317
C          1.78122       -4.68416        3.61413
C          2.29864       -4.95761        4.88746
C          3.67710       -4.77459        5.07624
C          4.49607       -4.33734        4.02743
C          1.41102       -5.44215        6.01049
C          7.40806       -3.07285        1.96288
C          7.84306       -1.64668        2.30783
C          9.32002       -1.57140        2.76480
C          9.82596       -0.17826        3.07636
C         11.34426       -0.09307        3.42686
F         11.63496       -0.85225        4.51139
F         12.10351       -0.53654        2.39530
F         11.72659        1.17629        3.70007
F          9.64584        0.68150        2.01242
F          9.16090        0.37591        4.15156
H          1.67515        2.38862        1.74490
H          2.42014        1.48131        3.07940
H          1.12542        0.74094        2.12337
H          3.91891        1.48599        1.02816
H          2.62855        0.75046        0.08193
H          2.67896       -1.25848        1.62058
H          4.00159       -0.53187        2.50783
H          5.43318       -0.56281        0.41517
H          4.10062       -1.28841       -0.48470
H          5.33979       -4.40970       -0.31744
H          2.15271       -4.05302        1.59963
H          0.70687       -4.81005        3.43758
H          4.11330       -4.97506        6.06185
H          5.56402       -4.20582        4.23448
H          0.34923       -5.38330        5.73079
H          1.55087       -4.84769        6.92690
H          1.62453       -6.49128        6.27445
H          8.11087       -3.50821        1.23140
H          7.46990       -3.70922        2.86365
H          7.20443       -1.22866        3.10267
H          7.71670       -0.98311        1.43806
H          9.96676       -1.99081        1.97866
H          9.47029       -2.18507        3.66651
