76

N          7.90548       -4.07933        4.39380
C          6.99816       -2.91959        4.30364
C          7.54753       -1.86247        3.34940
C          6.63321       -0.63898        3.23593
C          7.21240        0.40814        2.27371
C          6.32062        1.61769        1.91218
C          5.93313        2.46094        3.14449
C          7.01333        2.94798        4.21517
C          8.16500        3.95675        3.84019
C          7.80775        5.40799        3.35345
F          6.96191        6.01986        4.20487
F          8.95842        6.13054        3.32145
F          7.28289        5.42082        2.12505
F          8.89815        4.13100        4.98642
F          8.98245        3.40198        2.90946
F          6.32940        3.54461        5.24321
F          7.66356        1.87027        4.75089
F          5.29161        3.63554        2.81987
F          5.06441        1.74408        3.94465
C          6.90403        2.44509        0.77281
C          8.18178        2.19457        0.23768
C          8.64958        2.86994       -0.89211
C          7.86623        3.83250       -1.55292
C          6.58993        4.09050       -1.00730
C          6.11855        3.42061        0.11722
Si         8.36155        4.58629       -3.19475
C          7.20815        3.84287       -4.52313
C          7.10599        2.31429       -4.42280
C          6.10958        1.72124       -5.40145
C          6.02544        0.15245       -5.45784
C          5.75633       -0.68402       -4.14888
C          4.44161       -0.48573       -3.28564
C          3.05657       -0.72965       -3.99110
C          1.83306       -0.84897       -3.00523
F          1.76164        0.20360       -2.18431
F          0.70127       -0.89100       -3.75426
F          1.89247       -1.98058       -2.28534
F          2.78949        0.29797       -4.83636
F          3.10071       -1.88536       -4.71133
F          4.54528       -1.37822       -2.27228
F          4.45301        0.77040       -2.78165
F          5.81419       -1.99432       -4.52222
F          6.79033       -0.45047       -3.29495
F          5.08646       -0.20379       -6.37987
F          7.24085       -0.29150       -5.91268
F          4.84360        2.19947       -5.17294
F          6.42924        2.08787       -6.69810
C          8.13013        6.46333       -3.21379
C         10.15605        4.17248       -3.63245
C          4.87845        0.99792        1.20270
O          5.08069       -0.08000        0.61880
O          3.88160        1.72439        1.32582
H          7.53720       -4.76272        5.05746
H          8.80673       -3.77615        4.76960
H          6.79454       -2.44479        5.28526
H          6.02974       -3.28211        3.92260
H          7.69501       -2.32062        2.35771
H          8.54914       -1.54921        3.70167
H          6.47533       -0.21802        4.23875
H          5.65093       -0.95364        2.85507
H          7.37599       -0.10382        1.31486
H          8.19983        0.73252        2.64470
H          8.82976        1.45125        0.70014
H          9.64707        2.62379       -1.26712
H          5.92666        4.81760       -1.48676
H          5.10558        3.60097        0.47315
H          7.54671        4.14566       -5.52637
H          6.20974        4.28625       -4.37928
H          6.79851        2.02211       -3.40892
H          8.07721        1.83347       -4.61281
H          7.10510        6.73766       -2.92676
H          8.32431        6.88142       -4.21261
H          8.81418        6.94677       -2.50200
H         10.32756        3.08874       -3.69764
H         10.84894        4.57322       -2.87870
H         10.42475        4.61271       -4.60395
