30

N          0.87793        1.67923       -1.24024
C          2.29983        2.01950       -1.02364
C          3.14821        0.77240       -1.28646
C          4.69985        0.89080       -1.23329
C          5.22457        1.38714        0.13521
C          4.79908        0.73993        1.51781
F          3.46425        0.52649        1.61374
F          5.44141       -0.39665        1.79451
F          5.11996        1.62115        2.51537
F          6.60461        1.33905        0.18050
F          4.90033        2.73472        0.28720
C          5.19864       -0.60428       -1.51952
O          5.78127       -0.81828       -2.63063
O          4.89975       -1.43833       -0.64930
C          5.15582        1.87918       -2.33990
C          6.67606        2.02325       -2.62556
C          7.01485        1.79783       -4.09702
O          7.54852        2.64327       -4.80394
O          6.68433        0.58930       -4.55736
H          0.28996        2.47463       -0.98542
H          0.61745        0.92148       -0.60461
H          2.49761        2.41192       -0.01171
H          2.55723        2.81952       -1.73467
H          2.90686        0.41272       -2.29936
H          2.84596       -0.03062       -0.60019
H          4.74318        2.87664       -2.13533
H          4.65477        1.52248       -3.25063
H          7.24138        1.27602       -2.05414
H          7.04304        3.01577       -2.33898
H          6.28463        0.02849       -3.77562
