28

N          2.22667       -0.12017       -1.88945
C          1.88217       -0.25512       -0.46013
C          2.41308       -1.52263        0.24965
C          3.90484       -1.75389        0.24228
S          4.79536       -1.25125        1.57575
O          3.92588       -0.94836        2.73357
O          5.98071       -2.11080        1.78103
C          5.56420        0.38263        1.24186
C          4.55681       -2.71898       -0.70637
C          5.53671       -2.11736       -1.79122
C          5.78930       -3.09849       -2.90849
O          6.68172       -3.94685       -2.91750
N          4.88083       -3.02060       -3.95809
H          1.87757       -0.95272       -2.37687
H          3.24908       -0.19600       -1.94335
H          0.77993       -0.21345       -0.37608
H          2.27352        0.63626        0.05608
H          1.91831       -2.39460       -0.23126
H          2.04183       -1.49253        1.28971
H          4.76610        1.10786        1.04007
H          6.22410        0.28552        0.37089
H          6.14164        0.68239        2.12833
H          3.74999       -3.24931       -1.24588
H          5.14495       -3.48671       -0.17718
H          6.48981       -1.87393       -1.30550
H          5.10260       -1.18850       -2.19018
H          4.01333       -2.51425       -3.81657
H          4.83808       -3.83281       -4.56576
