15

Nb         1.33445        0.25461        0.83887
C         -0.27023       -0.66542        2.08768
N         -0.71143        0.69701        1.80823
F          0.02244       -0.23805       -0.56154
C          3.11957        0.05841       -0.50897
H          1.59213        0.77544        2.56265
H          1.57903        2.04635        0.93888
H          2.30901       -0.95253        1.72480
H         -0.13272       -0.87066        3.15026
H         -0.89919       -1.40997        1.58334
H         -0.71422        1.34083        2.58989
H         -1.51199        0.80093        1.19035
H          2.99583        0.71041       -1.39587
H          3.27981       -0.97482       -0.86488
H          4.04549        0.36975        0.00745
