30

F          0.65470        0.23134       -0.61877
C          1.96353        0.19345       -0.21371
C          2.78646       -0.61889       -1.28020
C          2.18895       -0.66978       -2.73276
F          1.91898        0.54243       -3.22878
F          3.09207       -1.26929       -3.55419
F          1.06092       -1.41603       -2.76829
F          4.05124       -0.13552       -1.37445
F          2.88481       -1.93469       -0.89094
S          2.53632        2.01610        0.30284
O          1.41716        2.37783        1.18727
O          3.83930        1.77318        0.93963
B          2.61010        3.07482       -1.30945
C          2.91263        4.58270       -0.85539
C          4.22346        5.09019       -0.79212
C          4.48825        6.41459       -0.43199
C          3.44885        7.29828       -0.11168
C          2.13651        6.80207       -0.15309
C          1.87967        5.47903       -0.51487
C          3.72747        8.73828        0.24734
F          2.00713       -0.51161        0.95237
H          1.50328        2.91433       -1.79016
H          3.50221        2.55865       -1.95443
H          5.05602        4.42293       -1.02755
H          5.52245        6.77086       -0.39448
H          1.30416        7.46434        0.10518
H          0.84868        5.11826       -0.52938
H          4.79163        8.89364        0.47443
H          3.14523        9.05687        1.12543
H          3.46392        9.42063       -0.57801
