63

C          2.66588        0.50515       -0.48287
C          1.16507        0.36458       -0.38004
C          0.39958       -0.06550       -1.47411
C         -0.98983       -0.19153       -1.36888
C         -1.66717        0.10195       -0.18268
C         -0.90110        0.52646        0.91055
C          0.49055        0.65812        0.81523
As        -3.74608       -0.22351       -0.23736
C         -3.89225       -0.82504        1.79087
C         -3.87067       -0.00971        2.93095
C         -4.13280       -0.53040        4.20613
C         -4.43449       -1.89378        4.39222
C         -4.45045       -2.71176        3.24068
C         -4.18130       -2.18184        1.97817
Si        -4.89283       -2.60446        6.06190
C         -6.76251       -3.00269        6.08427
C         -7.64270       -1.80730        5.70146
C         -9.12609       -2.09813        5.74489
F         -9.49307       -3.10198        4.89966
F         -9.54960       -2.46889        6.99380
F         -9.86762       -1.00406        5.39884
C         -3.97841       -4.22583        6.40496
C         -4.52708       -1.37641        7.45653
C         -4.26425        1.77362        0.18135
C         -4.89874        2.34518       -1.07243
C         -5.55463        3.72070       -0.85123
C         -6.26558        4.26221       -2.07553
C         -6.87817        5.68550       -1.89944
F         -7.77701        5.70405       -0.88573
F         -5.91281        6.59340       -1.61432
F         -7.51269        6.09853       -3.02020
F         -5.41828        4.35387       -3.15947
F         -7.31067        3.44714       -2.45435
H          3.02423        0.19860       -1.47589
H          3.18405       -0.11463        0.26590
H          2.98978        1.54528       -0.31805
H          0.90316       -0.30509       -2.41727
H         -1.57327       -0.52641       -2.23651
H         -1.38579        0.74913        1.86507
H          1.06528        0.99077        1.68660
H         -3.44130       -1.76645       -0.57100
H         -3.67824        0.11687       -1.81069
H         -5.34351       -0.51178       -0.35626
H         -3.65562        1.05879        2.83836
H         -4.10251        0.14336        5.06896
H         -4.68121       -3.77977        3.33182
H         -4.20049       -2.83492        1.09530
H         -7.03740       -3.37437        7.08491
H         -6.94078       -3.83067        5.37966
H         -7.41249       -1.46154        4.68269
H         -7.48049       -0.95196        6.37502
H         -4.15855       -4.95729        5.60421
H         -4.30179       -4.67771        7.35435
H         -2.89384       -4.05541        6.45799
H         -5.08038       -0.43437        7.33487
H         -3.45674       -1.12738        7.48679
H         -4.80252       -1.80396        8.43186
H         -3.38020        2.34777        0.49885
H         -4.99043        1.72396        1.00711
H         -5.66236        1.63441       -1.43731
H         -4.14644        2.42821       -1.87135
H         -4.79957        4.46232       -0.54844
H         -6.29788        3.66480       -0.04098
