26

F          1.39044        0.57324        1.07945
Ga         3.03810        0.55987        0.30344
S          2.44378        0.07207       -2.10174
O          2.60512       -1.37051       -2.39582
O          1.27079        0.75744       -2.67817
C          3.91514        0.83661       -3.11399
F          5.11191        0.46502       -2.57207
F          3.90066        0.41669       -4.40090
F          3.88220        2.19256       -3.12057
C          3.99905       -1.12272        0.81250
C          5.52032       -0.97993        0.90889
C          6.20687       -2.32565        1.21183
C          7.70567       -2.22154        1.39909
C          8.42658       -3.57706        1.67459
F          7.94124       -4.16089        2.79743
F          8.24366       -4.43747        0.64577
F          9.75744       -3.40665        1.84055
F          8.32093       -1.68502        0.29054
F          8.02289       -1.40368        2.46555
H          3.67201        1.99952        0.25623
H          3.72673       -1.87621        0.05711
H          3.57625       -1.45852        1.77369
H          5.78965       -0.25591        1.69371
H          5.92813       -0.58236       -0.03283
H          6.01697       -3.03599        0.39286
H          5.78912       -2.76825        2.12927
