44

C          0.95698       -5.44834       -2.17399
O          2.35451       -5.57114       -2.32596
C          3.06036       -5.12370       -1.17234
C          4.55359       -5.12843       -1.43133
O          4.90086       -4.03124       -2.24499
C          6.33610       -3.91665       -2.43399
C          6.66575       -2.67226       -3.21663
Ga         8.62081       -2.23164       -3.52840
C          9.61073       -1.65930       -1.76101
C          9.94189       -2.66740       -0.64150
F          8.80932       -3.23578       -0.14456
F         10.73088       -3.66952       -1.10613
F         10.59548       -2.11091        0.42129
F         10.85257       -1.08476       -2.08192
F          8.89043       -0.64315       -1.11967
C          9.69115       -3.72477       -4.40537
C          9.06398       -4.76572       -5.11746
C          9.79781       -5.75225       -5.78902
C         11.19699       -5.73451       -5.77278
C         11.83922       -4.71041       -5.07705
C         11.09623       -3.72451       -4.40785
C         13.34128       -4.66347       -5.01498
F         13.94021       -5.53900       -5.87711
F         13.83497       -3.42684       -5.31521
F         13.81906       -4.96894       -3.76970
C          9.11467       -6.83818       -6.57101
F          7.77219       -6.88329       -6.37065
F          9.29951       -6.69644       -7.92445
F          9.59847       -8.08403       -6.26427
H          0.49374       -5.81636       -3.09910
H          0.65334       -4.39508       -2.01482
H          0.57957       -6.04861       -1.32098
H          2.83137       -5.78702       -0.31193
H          2.74306       -4.09599       -0.90691
H          4.84463       -6.09148       -1.90164
H          5.07590       -5.07148       -0.45160
H          6.69234       -4.83101       -2.95052
H          6.81012       -3.90117       -1.43487
H          6.24249       -1.79445       -2.70268
H          6.18499       -2.71679       -4.20793
H          8.76090       -0.90946       -4.40361
H          7.97352       -4.81438       -5.15507
H         11.77124       -6.50021       -6.29275
H         11.63674       -2.93635       -3.87770
