50

C          4.56210       -1.07789       -0.79212
C          4.16500        0.28156       -1.37316
C          2.64524        0.38134       -1.66636
C          2.09082       -0.56092       -2.71831
S          0.79052       -1.54188       -2.25419
O          0.20120       -1.08429       -0.99404
O         -0.08125       -1.91398       -3.36751
C          1.40650       -3.27745       -1.72759
F          2.13693       -3.23647       -0.58261
F          0.36664       -4.12326       -1.50712
F          2.19133       -3.84432       -2.68490
C          2.52902       -0.48874       -4.08792
C          2.28307       -1.48050       -5.08916
C          2.75306       -1.35652       -6.38345
C          3.50087       -0.22911       -6.78916
C          3.75350        0.76624       -5.83062
C          3.29205        0.63764       -4.52899
C          4.01872       -0.11429       -8.17615
C          2.97497        0.09413       -9.34039
C          1.96680        1.30429       -9.28124
C          2.47447        2.80388       -9.31827
C          3.34127        3.27917      -10.54454
C          3.41373        4.84610      -10.71013
F          3.76341        5.44572       -9.55695
F          4.34995        5.13503      -11.64040
F          2.24152        5.35564      -11.12930
F          4.61316        2.83922      -10.39904
F          2.83153        2.78972      -11.70588
F          1.33695        3.56563       -9.31462
F          3.16088        3.07275       -8.18334
F          1.12620        1.15553      -10.35080
F          1.22436        1.20354       -8.15263
F          3.63577        0.19120      -10.53894
F          2.18291       -1.01547       -9.40295
F          4.93040        0.91423       -8.30653
F          4.68691       -1.27636       -8.57313
C          4.59014        1.42378       -0.44163
H          4.28915       -1.89368       -1.47358
H          4.05327       -1.26172        0.16718
H          5.64808       -1.12856       -0.61632
H          4.70963        0.40291       -2.32443
H          2.42809        1.42973       -1.95471
H          2.09501        0.22394       -0.72723
H          1.71320       -2.36810       -4.82752
H          2.55533       -2.16027       -7.09377
H          4.32520        1.65274       -6.10651
H          3.50933        1.44422       -3.83007
H          4.08125        1.34308        0.53291
H          4.33448        2.40583       -0.86813
H          5.67466        1.40811       -0.25397
