42

C          1.77702        0.10371        0.83792
C          2.14696        0.60723       -0.56146
C          3.16579       -0.27416       -1.31577
C          2.68266       -1.67270       -1.57259
C          1.37586       -1.92491       -2.05026
C          0.93617       -3.21848       -2.29928
C          1.79238       -4.31644       -2.08846
C          3.10404       -4.08061       -1.64821
C          3.53692       -2.78050       -1.39893
C          1.29453       -5.70635       -2.31939
C          1.12682       -6.18729       -3.81201
C          2.37585       -6.21960       -4.77263
C          3.58975       -7.20730       -4.51803
C          3.29748       -8.75137       -4.41512
C          4.56988       -9.66209       -4.60978
F          5.58356       -9.26451       -3.81875
F          4.24210      -10.93000       -4.27688
F          4.98745       -9.66315       -5.88794
F          2.79332       -9.03585       -3.19075
F          2.40162       -9.12913       -5.36482
F          4.42433       -7.02737       -5.58628
F          4.25293       -6.82527       -3.40120
F          1.89247       -6.52035       -6.01550
F          2.92147       -4.98144       -4.82265
F          0.58549       -7.44617       -3.82271
F          0.23302       -5.35510       -4.41861
F          2.08892       -6.65062       -1.70309
F          0.01794       -5.86852       -1.79460
C          3.40706        0.42388       -2.79595
O          2.32920        0.67720       -3.38349
O          4.59604        0.59560       -3.10577
O          4.41801       -0.27902       -0.60950
H          1.06762        0.78719        1.32864
H          2.65749        0.03817        1.49981
H          1.31177       -0.89265        0.80050
H          2.59237        1.61177       -0.49263
H          1.25332        0.71219       -1.18961
H          0.71705       -1.08181       -2.25243
H         -0.08296       -3.38400       -2.65011
H          3.78476       -4.91727       -1.49047
H          4.56071       -2.59946       -1.07174
H          4.23397       -0.64048        0.27513
