25

C          0.97670        2.02995        0.14855
O          2.34100        1.74492       -0.07130
C          2.90275        0.94264        0.96139
C          4.41530        0.92524        0.84101
O          4.94215        2.10325        1.39962
C          6.37765        2.15871        1.30300
C          6.93059        3.38218        1.99706
Nb         6.26080        5.48194        1.54596
Br         6.50415        7.51367       -0.19420
O          7.45297        6.39873        2.74868
H          0.63669        2.65830       -0.68504
H          0.82323        2.57988        1.09643
H          0.35992        1.10770        0.17704
H          2.50520       -0.09231        0.89043
H          2.63075        1.34918        1.95444
H          4.69608        0.82057       -0.22884
H          4.80688        0.02705        1.37084
H          6.66170        2.17713        0.23105
H          6.77231        1.20629        1.73320
H          8.00992        3.42210        1.75003
H          6.84755        3.26294        3.09460
H          6.81010        4.71694        0.02939
H          4.62938        6.17121        1.49577
H          5.00302        4.69327        2.49240
H          7.83489        7.20020        2.35214
