19

S          3.40947        0.45538        1.70613
C          2.78972        0.01890        0.02324
C          3.22114       -1.40797       -0.34045
C          4.72915       -1.66454       -0.32793
Ta         5.44007       -3.53138       -1.27706
S          4.69291       -5.67063       -2.42066
O          4.88812       -2.88060       -3.04329
H          2.60825        1.53426        1.87758
H          3.20554        0.74064       -0.69524
H          1.69327        0.11408        0.03068
H          2.81300       -1.60352       -1.34879
H          2.72312       -2.12043        0.33638
H          5.13039       -1.60962        0.70083
H          5.25020       -0.87886       -0.91683
H          6.44819       -4.82302       -0.53928
H          4.30329       -4.08024       -0.00469
H          7.11313       -2.89199       -1.04429
H          5.26042       -6.63441       -1.66568
H          4.93970       -3.46231       -3.81606
