37

N          0.59077       -2.55026        1.08324
C          2.01714       -2.54708        1.50934
C          2.85506       -1.56575        0.69923
B          4.42421       -1.49017        1.19914
C          5.29158       -0.40376        0.32766
C          4.90335        1.11558        0.33275
C          4.76501        1.81191        1.73453
C          4.78695        3.38697        1.69278
F          3.91126        3.88137        0.79373
F          4.43723        3.86560        2.91453
F          6.01148        3.87383        1.40919
F          3.58069        1.47045        2.30673
F          5.77809        1.45269        2.56796
F          5.84016        1.85055       -0.37177
F          3.71020        1.29332       -0.31362
F          6.64842       -0.39596        0.69610
F          5.32114       -0.68583       -1.06028
C          5.19960       -2.94972        1.17165
C          5.13663       -3.77148       -0.12559
C          5.80861       -5.14771       -0.03466
C          5.72155       -5.96404       -1.32861
H          0.11666       -3.37865        1.45277
H          0.56746       -2.64714        0.06479
H          2.46736       -3.55707        1.44630
H          2.04299       -2.25855        2.57427
H          2.35927       -0.58205        0.75599
H          2.79982       -1.86595       -0.36756
H          4.46523       -1.06474        2.35911
H          4.77427       -3.56814        1.98589
H          6.26156       -2.81306        1.44757
H          5.59953       -3.20392       -0.95098
H          4.08203       -3.91802       -0.42522
H          5.34990       -5.71850        0.79254
H          6.86805       -5.01255        0.24582
H          4.67242       -6.13922       -1.61477
H          6.21082       -6.94655       -1.23568
H          6.20057       -5.43011       -2.16424
