71

O          4.46617        5.53114       -3.05863
C          4.61960        4.99481       -4.28747
O          4.73369        5.71466       -5.26448
C          4.64790        3.47179       -4.35042
C          5.84316        2.85356       -3.59785
Ta         6.21929        1.26362       -2.17707
S          4.12259        2.22495       -1.30437
O          4.09734        3.70396       -1.08388
O          3.07597        1.69293       -2.21234
C          3.38180        1.62521        0.40762
C          4.23927        1.79791        1.70092
C          3.41436        1.79323        3.04190
F          2.69022        2.91827        3.18813
F          2.58016        0.73323        3.10054
F          4.26511        1.71156        4.09339
F          5.13264        0.77807        1.79226
F          4.91625        2.97707        1.67366
F          2.23577        2.35529        0.55498
F          3.03152        0.31958        0.29665
C          8.36237        1.58971       -1.95629
C          8.99278        2.78781       -1.55189
C         10.36179        2.99159       -1.72664
C         11.19012        1.99436       -2.28957
C         10.57632        0.78420       -2.65947
C          9.19704        0.59111       -2.50531
Si        13.02911        2.30205       -2.54518
C         13.77534        3.02254       -0.94462
C         13.48604        2.18433        0.30732
C         14.11439        2.77003        1.55990
C         13.73535        2.09422        2.92735
C         13.99354        0.55547        3.15132
C         15.45380       -0.05316        3.09691
C         16.53507        0.50911        4.09294
C         17.81264       -0.40255        4.24319
F         18.33461       -0.70842        3.03994
F         18.73790        0.27672        4.95140
F         17.53233       -1.54083        4.89966
F         16.95945        1.71944        3.65921
F         15.99793        0.64272        5.33306
F         15.29861       -1.38146        3.36999
F         15.92751        0.06249        1.83009
F         13.47682        0.24918        4.37073
F         13.28515       -0.13379        2.21196
F         14.36694        2.75928        3.93743
F         12.39136        2.25156        3.09570
F         15.48995        2.77167        1.46925
F         13.73792        4.08453        1.72131
C         13.92277        0.69245       -2.97878
C         13.33681        3.57021       -3.91292
H          4.33137        4.82362       -2.36284
H          4.67937        3.19964       -5.41216
H          3.69796        3.09077       -3.94036
H          6.42202        3.63722       -3.06204
H          6.57195        2.42977       -4.33185
H          6.21834       -0.35467       -2.95238
H          5.25847        0.11480       -1.24102
H          6.41745        1.57544       -0.45211
H          8.39843        3.58454       -1.09547
H         10.79304        3.94964       -1.41697
H         11.17610       -0.02492       -3.08640
H          8.76498       -0.36087       -2.83029
H         13.38073        4.04135       -0.80939
H         14.86244        3.12881       -1.09116
H         13.86991        1.16084        0.19282
H         12.40243        2.10288        0.47787
H         13.78814       -0.07868       -2.20710
H         15.00189        0.87148       -3.09352
H         13.55395        0.27735       -3.92762
H         12.82802        4.51990       -3.69557
H         12.95676        3.20440       -4.87717
H         14.41109        3.77843       -4.02772
