40

N          3.91293       -2.23654       -3.46263
C          2.80040       -2.14778       -2.49323
C          3.35451       -1.54197       -1.20804
C          4.05635       -0.20966       -1.52131
Nb         5.19519       -0.14886       -3.48524
C          3.94731       -0.06147       -5.32038
C          2.69311        0.59804       -5.30770
C          1.82880        0.60464       -6.40648
C          2.16617       -0.04689       -7.60475
C          3.39549       -0.71855       -7.64041
C          4.25054       -0.73233       -6.53027
C          1.26084        0.00536       -8.81215
C          6.84925       -1.68619       -3.74602
C          8.34151       -1.63124       -3.40818
C          8.66305       -1.90708       -1.94566
O          9.72501       -2.33873       -1.53348
O          7.65602       -1.61166       -1.08609
H          3.58050       -2.42301       -4.41131
H          4.55826       -2.98504       -3.19976
H          2.31271       -3.12592       -2.32249
H          2.04659       -1.47296       -2.92993
H          4.07681       -2.25525       -0.76861
H          2.53328       -1.45664       -0.46862
H          4.64203        0.14249       -0.65840
H          3.29878        0.58400       -1.69037
H          6.77951        0.63926       -3.48222
H          5.39515        1.33687       -4.41345
H          5.39255        1.34649       -2.58694
H          2.38404        1.15177       -4.41312
H          0.87215        1.13488       -6.33770
H          3.68953       -1.24628       -8.55491
H          5.19706       -1.27646       -6.62849
H          0.19939        0.01850       -8.52094
H          1.42001       -0.86124       -9.47105
H          1.43817        0.91022       -9.41842
H          6.74036       -1.36292       -4.81143
H          6.52290       -2.74883       -3.72186
H          8.70675       -0.60819       -3.60540
H          8.97389       -2.32062       -3.99366
H          6.91329       -1.29884       -1.66583
