26

C          1.16423        0.13859       -0.06936
S          2.96108        0.18853        0.23885
O          3.44674        1.36330       -0.51482
O          3.10021        0.19721        1.70491
Ga         3.90076       -1.77837       -0.78017
C          2.52633       -3.34824       -0.56897
C          1.71264       -3.63635       -1.86115
C          0.43583       -4.54649       -1.72606
C         -0.10405       -5.14616       -3.07530
F         -0.25565       -4.18769       -4.01112
F          0.71586       -6.09722       -3.55780
F         -1.31376       -5.71373       -2.85618
F          0.69301       -5.60161       -0.90811
F         -0.57929       -3.81711       -1.18729
F          1.28652       -2.43488       -2.37277
F          2.54722       -4.20816       -2.77996
F          3.15529       -4.52328       -0.21069
F          1.60101       -3.08118        0.43514
S          5.62887       -2.57453        0.70237
O          5.24354       -2.89922        2.06624
O          6.51790       -3.48987       -0.00561
F          6.54044       -1.17877        0.85584
H          0.78316        1.07528        0.35878
H          0.73325       -0.72899        0.44087
H          0.98067        0.10462       -1.14944
H          4.53728       -1.50173       -2.17328
