37

C          4.88813        0.39028        0.63876
C          4.41726        1.30168       -0.50018
C          2.93313        1.66547       -0.43905
Nb         2.12954        2.56022        1.42488
S          3.46085        3.45853        3.30344
O          2.62469        3.85468        4.45457
O          4.61068        2.56334        3.57076
C          4.46732        5.11846        2.98164
C          3.73297        6.40026        2.49200
F          2.61316        6.63840        3.19917
F          4.54737        7.49154        2.64426
F          3.41567        6.33356        1.18434
F          5.02176        5.42369        4.19326
F          5.48741        4.88126        2.10736
C          0.00298        2.88307        1.09760
C         -0.21628        1.36081        1.02558
C         -1.02101        0.80900        2.19254
O         -2.17664        0.44261        2.09586
O         -0.37731        0.77601        3.38077
C          2.53265        2.60332       -1.58578
H          5.94376        0.10655        0.51190
H          4.29757       -0.53945        0.67348
H          4.80217        0.88768        1.61687
H          4.63830        0.81285       -1.47270
H          5.00594        2.23404       -0.48272
H          2.34781        0.72173       -0.53629
H          2.07066        1.50903        2.91651
H          1.85033        4.27569        1.52278
H          3.53918        3.46939        0.92859
H         -0.34854        3.41176        0.20547
H         -0.44181        3.34578        1.98796
H          0.76731        0.79728        1.04907
H         -0.68490        1.04938        0.08422
H          0.57057        1.08395        3.27300
H          3.08470        3.55373       -1.52324
H          1.45821        2.84741       -1.59227
H          2.75960        2.15492       -2.57243
