31

N          1.73031        0.59667       -2.36205
C          3.13357        0.21636       -2.06004
C          3.18525       -0.95136       -1.08399
In         5.22101       -1.60406       -0.54644
C          6.31919        0.18902        0.46266
C          7.48087        1.02706       -0.13289
C          7.10811        1.89889       -1.37923
C          8.31210        2.57466       -2.13248
F          9.03506        3.35891       -1.30363
F          9.13015        1.67077       -2.69172
F          7.81779        3.36072       -3.11862
F          6.45740        1.13313       -2.29132
F          6.28376        2.91543       -0.99286
F          8.01066        1.88489        0.80644
F          8.47956        0.16452       -0.49723
F          5.34483        1.11275        0.86837
F          6.85343       -0.31427        1.65385
S          6.04321       -2.32948       -3.02459
O          5.54763       -3.71022       -3.21604
O          5.77367       -1.35618       -4.10518
C          7.96341       -2.57338       -3.15548
F          8.61764       -1.38688       -3.17614
F          8.43049       -3.27977       -2.09328
F          8.29064       -3.24728       -4.28197
H          1.72288        1.38327       -3.01615
H          1.28843        0.93982       -1.50556
H          3.71809        1.06402       -1.65552
H          3.60552       -0.06694       -3.01266
H          2.64312       -1.81677       -1.49109
H          2.70240       -0.67791       -0.12976
H          5.65259       -3.01128        0.39029
