43

C          1.22165       -0.70959       -0.24606
C          2.71970       -0.42755       -0.10390
C          3.07015        0.38884        1.14402
C          4.56727        0.67460        1.29385
C          4.90950        1.51202        2.53029
C          6.41512        1.77539        2.64061
C          6.92924        2.40568        3.95274
S          6.31245        4.13765        4.04997
O          6.85889        4.89670        5.15000
O          6.29655        4.74623        2.72862
F          4.74092        3.93227        4.39817
C          6.53705        1.48493        5.22600
O          6.90293        0.29866        5.03357
O          5.98485        2.03600        6.19431
C          8.47657        2.52410        3.87569
C          9.22506        2.81704        5.18120
C         10.74362        2.77115        4.98752
C         11.52973        3.06141        6.27014
C         13.04747        3.01442        6.07478
H          0.99919       -1.29042       -1.15345
H          0.64598        0.22713       -0.29972
H          0.84188       -1.27813        0.61638
H          3.07997        0.10835       -0.99900
H          3.27360       -1.38163       -0.07988
H          2.71066       -0.14446        2.04160
H          2.51697        1.34465        1.11936
H          4.92851        1.19341        0.38684
H          5.11731       -0.28238        1.33814
H          4.57180        0.98511        3.43692
H          4.35295        2.46037        2.48649
H          6.75755        2.37371        1.77967
H          6.93243        0.80411        2.61015
H          8.76067        3.25625        3.09795
H          8.79683        1.53493        3.51122
H          8.92571        2.07232        5.93508
H          8.93030        3.79948        5.57659
H         11.04232        3.49922        4.21048
H         11.03699        1.77766        4.60130
H         11.23310        2.33632        7.04628
H         11.23674        4.05245        6.65547
H         13.37174        2.02178        5.72572
H         13.58748        3.23209        7.00831
H         13.37347        3.74885        5.32188
