56

C          4.27631       -4.39835        1.88181
C          4.66854       -2.93376        2.10425
C          5.71986       -2.40462        1.11690
C          5.22535       -2.28030       -0.32997
C          6.25071       -1.65647       -1.29135
C          7.46787       -2.53735       -1.57855
Nb         7.43091       -4.52334       -2.46768
S          6.15048       -6.03903       -3.91813
O          5.79062       -5.83679       -5.32963
O          7.04145       -7.18927       -3.58665
C          4.43613       -6.76161       -3.27663
C          3.21512       -5.79306       -3.17556
C          2.74209       -5.05002       -4.47811
C          1.29662       -4.42820       -4.37632
F          1.15085       -3.68266       -3.26228
F          1.09385       -3.62628       -5.44680
F          0.33925       -5.37570       -4.38789
F          3.58448       -4.02297       -4.73977
F          2.71429       -5.89842       -5.53581
F          2.13664       -6.51204       -2.70895
F          3.50327       -4.83982       -2.24281
F          4.10218       -7.78808       -4.10981
F          4.58882       -7.28516       -2.02639
C          9.56751       -4.98993       -2.62653
C         10.01053       -6.33023       -2.53997
C         11.37230       -6.64308       -2.51447
C         12.34460       -5.63620       -2.58147
C         11.92544       -4.31068       -2.67449
C         10.55769       -3.99346       -2.69511
C         12.93103       -3.19355       -2.73294
F         14.21630       -3.63451       -2.83747
F         12.71733       -2.35903       -3.79265
F         12.88469       -2.40114       -1.61648
C         11.84631       -8.06823       -2.40884
F         10.84163       -8.97366       -2.42983
F         12.70420       -8.40103       -3.42414
F         12.54813       -8.28462       -1.24805
H          3.54374       -4.73243        2.63047
H          5.15451       -5.05703        1.95445
H          3.83329       -4.55965        0.88990
H          5.05522       -2.81761        3.13076
H          3.76761       -2.29770        2.04481
H          6.60540       -3.06172        1.15670
H          6.06169       -1.41027        1.45550
H          4.31116       -1.66026       -0.33253
H          4.92985       -3.26956       -0.71445
H          6.56037       -0.67616       -0.87656
H          5.75129       -1.44165       -2.24916
H          8.02042       -2.77885       -0.63777
H          8.18746       -1.98951       -2.21790
H          7.83831       -4.79010       -4.14453
H          6.61843       -3.47953       -3.60605
H          6.39496       -5.54209       -1.42576
H          9.27607       -7.13839       -2.52300
H         13.40484       -5.88456       -2.56907
H         10.27608       -2.94018       -2.77584
