58

O          6.15566        2.92630       -0.42827
C          5.38783        2.49892       -1.47263
O          5.66920        2.85574       -2.60101
C          4.19752        1.61875       -1.12645
C          4.50176        0.35520       -0.28779
C          4.97604        0.67682        1.12175
C          4.27047        1.57925        1.95281
C          4.66753        1.79951        3.27111
C          5.78098        1.14013        3.83457
C          6.48394        0.25044        2.99694
C          6.09506        0.02552        1.67584
Si         6.19883        1.37822        5.64537
C          4.72067        0.75577        6.68517
C          4.29315       -0.66595        6.29922
C          3.24966       -1.32886        7.18298
C          1.80177       -0.72074        7.27103
C          0.99395       -0.41707        5.95210
C          0.61823       -1.56501        4.92692
C         -0.25038       -2.76949        5.44907
C         -0.90190       -3.64031        4.30836
F          0.01378       -4.03000        3.41061
F         -1.44235       -4.74233        4.88030
F         -1.88482       -2.97292        3.68240
F          0.52468       -3.59890        6.19022
F         -1.26766       -2.30850        6.22671
F         -0.09050       -0.94702        3.94562
F          1.76258       -2.05715        4.39644
F         -0.16756        0.17749        6.34438
F          1.70605        0.49283        5.23295
F          1.03482       -1.54215        8.04528
F          1.89140        0.48190        7.91521
F          3.09983       -2.64348        6.80155
F          3.68810       -1.35933        8.49428
C          7.74299        0.39614        6.12830
C          6.46740        3.20054        6.07499
C          3.04455       -0.41406       -0.11885
O          3.06237       -1.60800       -0.49601
O          2.12742        0.29487        0.34588
N          5.44267       -0.53529       -0.97809
H          5.85156        2.47596        0.39077
H          3.73771        1.31495       -2.07562
H          3.44998        2.22298       -0.59060
H          3.37181        2.06072        1.56734
H          4.07983        2.49736        3.87657
H          7.35712       -0.28413        3.38197
H          6.64166       -0.66298        1.03025
H          3.88788        1.46047        6.54276
H          4.99006        0.79843        7.75244
H          5.14857       -1.35881        6.35608
H          3.94029       -0.70154        5.25923
H          7.62307       -0.68288        5.95722
H          7.97314        0.54367        7.19368
H          8.61598        0.72717        5.54786
H          5.59595        3.80700        5.78963
H          7.33889        3.60114        5.53827
H          6.63666        3.33861        7.15331
H          5.65295       -0.17490       -1.90917
H          4.90104       -1.40591       -1.10402
