24

N          1.94209       -0.76128       -0.14116
C          2.54199        0.49234        0.31590
As         3.30875        1.66167       -1.25003
C          1.90474        3.21860       -0.90918
C          2.08856        4.35992       -1.88515
C          1.10673        5.53207       -1.72417
C          4.78195        0.23797       -1.71657
H          2.70201       -1.37024       -0.45945
H          1.44060       -0.53763       -1.01629
H          3.38442        0.29388        0.99488
H          1.78821        1.10106        0.84135
H          2.19983        0.86246       -2.23107
H          3.86329        2.49123       -2.51743
H          4.36108        2.41792       -0.24061
H          2.05617        3.54272        0.13424
H          0.90936        2.75217       -1.00691
H          2.01271        3.96647       -2.91581
H          3.12290        4.74242       -1.79972
H          0.06558        5.19410       -1.84832
H          1.29042        6.33321       -2.46270
H          1.18512        5.97792       -0.71978
H          4.56763       -0.16549       -2.71735
H          4.84869       -0.58827       -0.98946
H          5.73377        0.78919       -1.72705
