52

N          0.68329        4.00929       -3.91625
C          2.06425        4.25913       -3.45040
C          2.89669        2.97867       -3.44651
C          4.32256        3.18215       -2.90695
C          5.18662        1.92082       -2.81337
Ga         6.94205        2.30586       -1.80821
C          8.08651        0.68768       -1.26298
C          7.32423       -0.42816       -0.53264
C          6.54300       -1.33403       -1.49089
C          5.61677       -2.32324       -0.79137
N          4.94014       -3.19700       -1.77299
C          8.10541        3.63473       -2.85717
C          8.94848        2.98305       -3.95167
C          9.85969        3.94501       -4.72862
C         10.76141        3.23622       -5.73674
N         11.59712        4.19314       -6.45461
C         12.53646        3.79763       -7.38380
N         12.75153        2.61126       -7.84767
N         13.32913        4.86805       -7.84445
H          0.11809        4.85355       -3.80599
H          0.25443        3.30454       -3.31180
H          2.10577        4.70978       -2.43799
H          2.52018        4.99101       -4.13849
H          2.92795        2.56163       -4.46706
H          2.38634        2.22249       -2.82015
H          4.25207        3.64119       -1.90318
H          4.83192        3.93576       -3.53586
H          5.36021        1.50269       -3.82205
H          4.63173        1.14878       -2.24813
H          6.46561        3.01649       -0.41596
H          8.85359        1.10933       -0.58961
H          8.63971        0.25257       -2.11542
H          6.61776        0.02028        0.19118
H          7.99946       -1.07153        0.06960
H          7.24765       -1.89273       -2.13042
H          5.94456       -0.70017       -2.16756
H          4.90890       -1.75425       -0.15533
H          6.20188       -2.96977       -0.11450
H          4.46182       -2.60808       -2.45895
H          4.20940       -3.74419       -1.31402
H          8.76885        4.14592       -2.13600
H          7.46331        4.42181       -3.29339
H          8.29184        2.46511       -4.67546
H          9.57795        2.19058       -3.50777
H         10.48829        4.49898       -4.00667
H          9.24491        4.69786       -5.25106
H         10.14542        2.68803       -6.46900
H         11.38195        2.48520       -5.20991
H         11.83020        5.03097       -5.92870
H         12.19850        1.91744       -7.33733
H         12.79080        5.70461       -8.05988
H         13.88047        4.56599       -8.64377
