31

O          1.68950       -0.82359       -0.63555
C          1.92461       -0.71371        0.70946
O          1.02365       -0.34948        1.44830
C          3.32667       -1.09912        1.11200
B          4.54797       -0.68561        0.06753
C          4.97601        0.89782        0.15592
C          3.84653        1.92229       -0.11708
C          4.37574        3.33875       -0.20102
O          4.33702        4.16056        0.71412
N          4.94068        3.67302       -1.42387
C          5.83999       -1.67425        0.32350
C          6.99900       -1.50853       -0.66779
C          8.18563       -2.46139       -0.57686
O          9.01046       -2.60715       -1.48318
N          8.30773       -3.13277        0.61275
H          2.59521       -0.96128       -1.02833
H          3.31366       -2.20493        1.17755
H          3.48543       -0.73574        2.13992
H          4.15631       -0.91870       -1.11772
H          5.79824        1.09333       -0.55915
H          5.40138        1.12290        1.15342
H          3.09600        1.89731        0.68350
H          3.33463        1.66513       -1.05964
H          5.20902        2.92177       -2.05030
H          5.53879        4.49254       -1.42231
H          5.48602       -2.72287        0.28858
H          6.20711       -1.50385        1.35760
H          7.43005       -0.49484       -0.58944
H          6.63418       -1.58157       -1.70473
H          7.54059       -3.11181        1.27526
H          9.01958       -3.84852        0.68508
