49

N          0.34167        1.19765       -0.16091
C          1.58494        1.94011        0.11988
C          2.71626        1.49191       -0.80184
C          4.02692        2.23794       -0.53788
C          5.17858        1.76409       -1.42961
C          6.50455        2.50599       -1.19781
C          6.99893        2.42688        0.21511
C          7.26238        1.17419        0.81149
C          7.71054        1.08876        2.12383
C          7.90825        2.25450        2.88732
C          7.67379        3.50515        2.29671
C          7.22993        3.58616        0.97876
C          8.33794        2.14765        4.31626
C          9.86007        1.85302        4.60507
C         10.96472        2.87428        4.13466
C         11.06072        4.33466        4.74713
C         11.18912        4.49021        6.30893
C         11.70440        5.90522        6.77656
F         10.99230        6.89785        6.21151
F         11.56198        5.98907        8.11734
F         13.00536        6.07962        6.48464
F          9.97716        4.30340        6.88325
F         12.06402        3.57565        6.80408
F         12.18792        4.87756        4.19469
F          9.99999        5.06689        4.33184
F         12.16675        2.27551        4.38646
F         10.85551        3.05058        2.79594
F         10.03666        1.67380        5.95172
F         10.17607        0.67698        3.99204
F          8.02656        3.28357        5.03521
F          7.69005        1.09553        4.94640
C          7.62691        1.90406       -2.21773
O          7.75390        0.66057       -2.09874
O          8.17133        2.73884       -2.95759
F          6.25748        3.87267       -1.50092
H         -0.38571        1.46618        0.50372
H          0.50492        0.19910       -0.01321
H          1.92468        1.84570        1.17130
H          1.37967        3.01025       -0.04893
H          2.40050        1.62628       -1.84946
H          2.88048        0.40670       -0.66589
H          4.30935        2.11158        0.52114
H          3.87134        3.31892       -0.68906
H          4.91579        1.89654       -2.49179
H          5.37402        0.69171       -1.28946
H          7.14169        0.27636        0.20565
H          7.89723        0.11053        2.56786
H          7.82074        4.41723        2.87482
H          7.04207        4.55837        0.52594
