29

C          5.08455       -2.96771        0.44701
C          4.72994       -1.50976        0.14262
C          5.15489       -0.53915        1.24847
C          4.80260        0.92205        0.94868
C          5.17191        1.91071        2.06658
C          6.68392        2.04477        2.31712
B          7.09304        3.20891        3.35709
S          9.01341        3.40159        3.29858
O          9.77165        2.38621        4.00946
O          9.42653        3.75415        1.94787
F          9.27639        4.78640        4.15910
S          6.57809        2.77262        5.18077
O          6.54853        1.34712        5.46601
O          7.06794        3.68331        6.19862
F          4.95380        3.17179        5.05155
H          4.76850       -3.64376       -0.36135
H          4.60121       -3.30667        1.37592
H          6.16992       -3.09010        0.58102
H          3.64175       -1.42139       -0.02183
H          5.20437       -1.20655       -0.80680
H          6.24086       -0.63380        1.41220
H          4.68006       -0.83750        2.20017
H          3.71688        0.98930        0.75244
H          5.30319        1.22862        0.01180
H          4.66364        1.60807        2.99621
H          4.76286        2.90210        1.81035
H          7.17874        2.28079        1.35816
H          7.09761        1.07910        2.65006
H          6.65405        4.31666        3.15756
