39

C          1.37277       -3.79945        0.55827
C          2.84524       -3.55693        0.21202
C          3.11286       -2.14895       -0.33336
C          4.60251       -1.81099       -0.55459
C          5.32803       -2.59082       -1.64428
Sb         7.49892       -1.93372       -1.94098
C          7.87614       -2.49647        0.24304
C          9.29428       -2.95255        0.54054
C          9.46131       -3.35021        2.02379
C         10.87004       -3.71522        2.43957
C         11.02748       -4.09821        3.94450
F         10.63932       -3.07767        4.74835
F         10.26926       -5.17866        4.25260
F         12.31109       -4.39728        4.25520
F         11.35545       -4.79114        1.72758
F         11.74880       -2.67085        2.23053
N          7.97676       -4.03153       -2.41340
H          1.20062       -4.82093        0.93054
H          0.72615       -3.65256       -0.32100
H          1.02800       -3.10003        1.33653
H          3.18244       -4.30563       -0.52222
H          3.46346       -3.71692        1.11254
H          2.68086       -1.41562        0.37471
H          2.56182       -2.02058       -1.28282
H          5.12520       -1.95117        0.40865
H          4.68100       -0.73129       -0.77394
H          4.83636       -2.46930       -2.62448
H          5.39295       -3.66595       -1.41372
H          7.09709       -0.23228       -1.48435
H          7.18496       -1.55667       -3.68083
H          9.24745       -1.55128       -2.14144
H          7.15984       -3.30974        0.44031
H          7.59777       -1.62264        0.85606
H         10.01325       -2.15427        0.29406
H          9.53942       -3.81311       -0.10130
H          8.81582       -4.21197        2.25498
H          9.13543       -2.52248        2.67291
H          7.19438       -4.37998       -2.98014
H          8.76151       -3.98776       -3.07395
