35

C          1.00966       -0.47870        0.14491
C          2.34239        0.08576        0.64836
C          2.91694        1.18272       -0.26060
C          4.25398        1.75413        0.17212
As         5.09851        2.84293       -1.40590
C          4.97323        4.63213       -0.26116
O          5.51799        5.73007       -1.07094
C          5.28052        6.96696       -0.67099
F          5.76730        7.26461        0.58478
F          5.87142        7.83571       -1.53381
F          3.94567        7.30315       -0.62492
C          7.13510        2.51368       -0.73370
C          7.83414        1.69893       -1.80215
C          9.34322        1.49692       -1.70594
O         10.01083        0.83337       -2.47513
O          9.94220        2.12982       -0.65322
H          0.61403       -1.26158        0.80988
H          1.12336       -0.91748       -0.85838
H          0.24806        0.31284        0.06888
H          3.07979       -0.73089        0.73443
H          2.21347        0.48581        1.66890
H          2.17604        1.99621       -0.35325
H          3.02876        0.76910       -1.28304
H          4.98567        0.95498        0.36968
H          4.17016        2.38439        1.07272
H          3.63190        3.14636       -1.98760
H          5.16839        1.46607       -2.25496
H          5.77048        3.66484       -2.60569
H          5.54753        4.57552        0.67572
H          3.90894        4.82732       -0.06542
H          7.12165        2.02906        0.25447
H          7.51868        3.54378       -0.65917
H          7.65046        2.15435       -2.79486
H          7.39606        0.69039       -1.88076
H          9.20315        2.58677       -0.18549
