35

C          0.95197       -0.06647       -0.63882
C          2.46345        0.08144       -0.44609
C          2.85128        1.29781        0.40051
C          4.35886        1.44494        0.62700
C          4.74463        2.65496        1.49410
C          6.24667        2.78353        1.75228
In         6.88335        4.49073        3.03557
S          6.81869        6.38554        1.02896
O          7.42263        5.89906       -0.21977
O          5.61597        7.21525        0.88403
F          7.99260        7.52962        1.58444
C          9.03808        4.49900        3.60873
C          9.91227        3.40564        2.97816
C         10.09168        3.55526        1.46408
H          0.70055       -0.94439       -1.25233
H          0.52721        0.81993       -1.13393
H          0.43934       -0.17780        0.32901
H          2.95608        0.15360       -1.43071
H          2.86606       -0.83138        0.02629
H          2.34196        1.23365        1.37934
H          2.46358        2.21351       -0.08020
H          4.87194        1.52369       -0.34800
H          4.74856        0.52474        1.10001
H          4.19845        2.58766        2.45236
H          4.37029        3.57115        1.00542
H          6.78792        2.89945        0.79980
H          6.63368        1.86140        2.22140
H          5.71336        5.14007        4.18669
H          9.06097        4.42114        4.70819
H          9.43213        5.49613        3.35698
H          9.48679        2.40864        3.19092
H         10.91700        3.40086        3.44683
H          9.12754        3.52250        0.93721
H         10.73231        2.75964        1.05197
H         10.55211        4.52341        1.21665
