36

C          4.22138       -3.86628       -2.97811
C          3.88503       -2.84499       -1.88718
C          4.60909       -3.10479       -0.56261
C          4.25633       -2.09390        0.53388
C          4.96395       -2.33896        1.88014
B          6.64099       -2.26584        1.88263
C          7.34805       -1.04593        0.99632
C          8.15145       -1.48442       -0.08816
C          8.86720       -0.63348       -0.93043
C          8.82365        0.75054       -0.72635
C          8.05888        1.23789        0.32607
C          7.33162        0.37275        1.17009
C          6.56285        1.09403        2.24492
O          6.64793        2.29916        2.44820
O          5.72819        0.35762        3.00477
C          7.25311       -2.39083        3.41564
H          3.69145       -3.65420       -3.91942
H          3.94900       -4.88601       -2.66353
H          5.30052       -3.86904       -3.19461
H          2.79387       -2.83819       -1.71387
H          4.14051       -1.83203       -2.24288
H          5.69781       -3.09685       -0.72785
H          4.36595       -4.12362       -0.20722
H          3.15605       -2.10088        0.66536
H          4.50738       -1.08141        0.16850
H          4.73656       -3.36889        2.21652
H          4.44425       -1.71222        2.63353
H          6.99763       -3.29312        1.29359
H          8.20736       -2.56285       -0.25651
H          9.46246       -1.05110       -1.74780
H          9.37840        1.43419       -1.37326
H          7.99766        2.30778        0.53260
H          5.77649       -0.58828        2.71701
H          8.35179       -2.48919        3.39767
H          6.86171       -3.30610        3.89501
H          7.02822       -1.55914        4.10708
