31

N          0.65773       -2.57110       -0.26978
C          2.02122       -2.57736        0.31821
C          2.88896       -1.45624       -0.25022
B          4.39209       -1.46829        0.38137
S          5.10389        0.36571        0.38426
O          4.06220        1.30102        0.84309
O          6.42929        0.47381        1.01813
C          5.46869        1.09274       -1.36929
F          4.42492        0.91209       -2.22829
F          5.69189        2.42739       -1.28263
F          6.56773        0.54160       -1.95126
C          5.37410       -2.72239       -0.04045
C          5.17772       -3.34095       -1.44603
C          5.60837       -2.48888       -2.64384
C          6.86696       -2.56512        0.29504
H          0.17319       -3.44263       -0.04105
H          0.74780       -2.55910       -1.28890
H          2.52954       -3.55259        0.17713
H          1.91491       -2.43412        1.40639
H          2.38734       -0.49777       -0.04577
H          2.91496       -1.56520       -1.35250
H          4.33799       -1.40958        1.61395
H          5.00245       -3.50976        0.64706
H          4.11505       -3.60926       -1.57311
H          5.73362       -4.29859       -1.48360
H          5.01098       -1.57117       -2.72135
H          5.48510       -3.04561       -3.58657
H          6.66288       -2.18737       -2.57321
H          7.35710       -1.80272       -0.32685
H          7.41091       -3.51727        0.15241
H          7.00425       -2.24043        1.33537
