14

S          0.85340       -0.12951        0.08005
Nb         3.22550        0.31401        0.05473
C          4.51897       -0.68292        1.66748
C          5.66960        0.14102        2.32211
F          6.44431        0.71417        1.35793
F          5.22277        1.13342        3.12800
F          6.50885       -0.61825        3.09326
F          3.66605       -1.01935        2.73649
F          5.15014       -1.88689        1.33648
Br         3.69887        1.81072       -1.91722
H          0.72750       -1.47010       -0.02194
H          3.07510       -1.41237        0.07512
H          3.43618        1.35083        1.47625
H          4.48461       -0.63286       -0.67228
