32

C          0.38473        0.08573        0.46199
C          1.85222       -0.34420        0.37174
C          2.73893        0.19883        1.49970
C          4.17275       -0.36231        1.47541
C          5.08387        0.08378        2.62152
In         7.08463       -0.94810        2.66358
C          8.33161       -0.03447        1.02452
C          7.79309       -0.27333       -0.38755
C          8.67155        0.27300       -1.51824
N          8.08064       -0.02030       -2.84407
S          8.22295       -0.19385        4.84040
H         -0.21596       -0.32933       -0.36207
H          0.28300        1.18161        0.42831
H         -0.06860       -0.25426        1.40639
H          2.26992       -0.03123       -0.60103
H          1.90853       -1.44687        0.37880
H          2.27975       -0.04284        2.47556
H          2.77236        1.30248        1.44904
H          4.63230       -0.09585        0.50574
H          4.09722       -1.46605        1.46565
H          4.59643       -0.09234        3.59524
H          5.27986        1.16865        2.56112
H          7.01524       -2.72527        2.68222
H          9.36206       -0.41573        1.11936
H          8.37548        1.04761        1.23954
H          6.78597        0.16408       -0.49924
H          7.66437       -1.35965       -0.56261
H          9.69483       -0.13755       -1.39581
H          8.75722        1.36895       -1.42088
H          7.87379       -1.02108       -2.89421
H          8.75845        0.16346       -3.58649
H          8.16289        1.11193        4.48657
