27

F         -2.22214       -0.82271       -2.68345
C         -0.93223       -1.01781       -3.03249
C          0.02624       -0.18283       -2.12860
C         -0.17134        1.30776       -2.20712
C          0.73838        2.11198       -1.27168
C          0.40206        3.60830       -1.37000
N         -0.98755        3.81191       -1.04610
C         -1.49455        4.99571       -1.21911
C         -3.01078        5.07472       -0.90684
C         -3.45124        4.51532        0.48854
F         -3.34788        3.17718        0.57654
F         -2.75457        5.06916        1.50185
F         -4.77163        4.82044        0.69819
F         -3.46894        6.36612       -0.95687
F         -3.73501        4.36383       -1.83660
F         -0.89088        6.13599       -0.45395
F         -1.39143        5.61709       -2.58089
F         -0.15181       -0.66420       -0.84859
F          1.30893       -0.55229       -2.50775
F         -0.67432       -2.34515       -2.93373
F         -0.79254       -0.67029       -4.33529
H         -1.21494        1.55382       -1.95518
H         -0.01195        1.61094       -3.25398
H          1.79804        1.94358       -1.51995
H          0.57385        1.77984       -0.23535
H          0.65285        3.95896       -2.39500
H          1.08211        4.15628       -0.68447
