63

C          8.71063        5.95143        1.19059
C          8.31729        4.52235        0.81005
C          8.89190        4.06775       -0.53568
C          8.48902        2.64046       -0.91705
C          9.05191        2.16032       -2.25889
C          8.59884        0.74267       -2.62242
C          9.14484        0.21476       -3.95541
C          8.61945       -1.18686       -4.30183
Si         9.24097       -1.99422       -5.91221
C          8.40523       -3.66909       -6.08618
C          7.57509       -3.99656       -7.17582
C          6.94562       -5.24401       -7.26607
C          7.11309       -6.23223       -6.27827
C          7.95046       -5.90252       -5.19489
C          8.57826       -4.65676       -5.09565
In         6.11115       -8.21447       -6.37998
S          6.85945       -8.88885       -8.91621
O          6.24047       -8.10250       -9.98885
O          8.27210       -9.24376       -9.09425
F          6.07724      -10.41737       -9.06508
C          7.03886       -9.81905       -5.15292
C          8.37063      -10.42399       -5.62865
C          9.50974       -9.39722       -5.63635
C          8.76262      -11.63915       -4.76873
C          8.82795       -0.88016       -7.38681
C         11.12320       -2.20074       -5.81449
H          8.28259        6.24577        2.15939
H          8.35968        6.67359        0.43794
H          9.80366        6.05706        1.26292
H          7.21763        4.43886        0.77895
H          8.65011        3.82585        1.59825
H          9.99348        4.14396       -0.50566
H          8.56209        4.76526       -1.32619
H          7.38701        2.57180       -0.94394
H          8.81333        1.94717       -0.12085
H         10.15534        2.20036       -2.22964
H          8.74378        2.85939       -3.05662
H          7.49536        0.71344       -2.65352
H          8.89386        0.04800       -1.81613
H         10.24824        0.20793       -3.91362
H          8.87831        0.92432       -4.75832
H          7.51685       -1.16663       -4.35588
H          8.85468       -1.88425       -3.47808
H          7.41544       -3.26749       -7.97624
H          6.31981       -5.44924       -8.13949
H          8.13216       -6.63747       -4.40412
H          9.21992       -4.45758       -4.22950
H          4.36322       -8.16514       -6.54864
H          6.27558      -10.61020       -5.07811
H          7.16246       -9.41267       -4.13108
H          8.24319      -10.77682       -6.66605
H          9.67384       -8.98926       -4.62413
H          9.29216       -8.55854       -6.31079
H         10.45381       -9.85437       -5.97075
H          8.91837      -11.33776       -3.71889
H          9.69564      -12.10536       -5.12638
H          7.97371      -12.40602       -4.78131
H          7.74603       -0.70468       -7.47113
H          9.16839       -1.33178       -8.32958
H          9.32157        0.09797       -7.28942
H         11.40433       -2.86549       -4.98491
H         11.63512       -1.23814       -5.66644
H         11.50802       -2.65083       -6.74071
