81

C         17.12946       -5.50204        3.43637
C         16.72718       -4.14942        4.02915
C         15.21186       -3.92835        4.05862
C         14.79382       -2.58109        4.65457
C         13.28082       -2.34452        4.63612
C         12.85710       -0.99805        5.22951
C         11.34710       -0.73796        5.15618
C         10.92632        0.61820        5.73937
Si         9.07489        1.06106        5.65474
C          8.84531        2.78607        6.35781
C          9.24456        3.91713        5.61416
C          9.13864        5.20321        6.14766
C          8.64156        5.41535        7.43601
C          8.23709        4.30475        8.18191
C          8.33470        3.01181        7.65057
As         8.55934        7.40752        8.04038
C          6.50604        7.11631        8.81288
F          5.66519        6.59023        7.85529
F          6.33534        6.30424        9.92347
F          5.92646        8.32250        9.16919
C          9.40908        6.99738        9.91205
C         10.47210        6.09903       10.05942
C         11.14760        5.96667       11.27354
C         10.75958        6.75082       12.37349
C          9.69533        7.65581       12.24025
C          9.03578        7.77015       11.01445
C         11.47905        6.60760       13.68111
C         12.96455        7.13484       13.75688
C         13.28957        8.63200       13.38756
C         12.72147        9.83638       14.24522
C         13.04808        9.88413       15.78515
C         12.84387       11.30308       16.44155
F         11.63358       11.80979       16.14318
F         12.93214       11.16968       17.78271
F         13.79106       12.17233       16.04693
F         12.23688        9.02320       16.44413
F         14.34258        9.53447       16.00714
F         13.26414       10.95904       13.68283
F         11.37819        9.89809       14.09269
F         14.65140        8.74540       13.41547
F         12.87762        8.86584       12.11763
F         13.44926        6.91925       15.01846
F         13.71856        6.39088       12.89703
F         10.80585        7.22386       14.71206
F         11.59931        5.27284       14.03810
C          8.50618        1.00804        3.84642
C          8.07747       -0.21232        6.63985
H         18.22104       -5.63159        3.42326
H         16.76863       -5.60475        2.40167
H         16.70181       -6.33308        4.01749
H         17.19895       -3.33735        3.45017
H         17.12701       -4.06121        5.05365
H         14.73640       -4.74447        4.63157
H         14.81431       -4.01084        3.03110
H         15.29377       -1.76730        4.09985
H         15.16388       -2.50962        5.69260
H         12.77720       -3.16014        5.18512
H         12.91755       -2.41278        3.59508
H         13.38615       -0.18378        4.70332
H         13.18515       -0.93874        6.28215
H         10.81973       -1.55312        5.68264
H         11.02886       -0.80793        4.10112
H         11.47559        1.43002        5.23045
H         11.22980        0.68361        6.79892
H          9.64379        3.79334        4.60143
H          9.44827        6.06962        5.54974
H          7.83961        4.43917        9.19096
H          8.00466        2.16578        8.26156
H          8.42657        8.91532        8.53200
H         10.02241        7.62426        7.44141
H          7.87710        7.74568        6.63826
H         10.78287        5.48697        9.20773
H         11.96738        5.25341       11.37242
H          9.38341        8.25841       13.09381
H          8.21478        8.48772       10.91344
H          9.05294        1.73791        3.23230
H          7.43656        1.25137        3.77416
H          8.65843        0.01334        3.40184
H          8.38658       -0.24108        7.69453
H          8.21039       -1.22259        6.22544
H          7.00394        0.02312        6.61284
