22

C          1.15624        0.10185       -0.60878
C          2.60460        0.21395       -0.10514
C          2.77331        0.16125        1.41884
C          2.20467        1.46151        2.16321
O          1.98265        1.31783        3.39572
O          2.01051        2.45561        1.42533
C          2.34456       -1.16399        2.07622
C          0.86419       -1.17651        2.48258
C          0.38861       -2.47805        3.07627
O          0.93937       -3.55535        3.03778
O         -0.83793       -2.38415        3.71221
Br         4.80443        0.24781        1.68136
H          1.12625        0.30039       -1.69076
H          0.51586        0.84580       -0.11598
H          0.73175       -0.90150       -0.45493
H          3.00535        1.18241       -0.43024
H          3.21433       -0.58243       -0.56228
H          2.92886       -1.31029        2.99224
H          2.57060       -2.00992        1.40832
H          0.19602       -0.95383        1.63437
H          0.73237       -0.34898        3.20507
H         -1.09731       -1.44532        3.70888
