37

C          1.05223       -0.00509        0.15826
C          2.57518       -0.17157        0.17697
C          3.11939       -0.96146       -1.01823
C          4.63659       -1.16447       -0.99716
C          5.18988       -1.92699       -2.21089
N          6.58651       -2.12189       -2.13966
C          7.05042       -2.80229       -3.28394
C          8.58514       -2.97371       -3.27206
C          9.10992       -3.44252       -1.90885
C          8.47468       -4.75831       -1.45037
N          8.77924       -5.10536       -0.06397
C          9.94001       -5.69872        0.35885
N         10.81625       -6.35241       -0.33811
N         10.12232       -5.63501        1.76018
H          0.68764        0.57278        1.02174
H          0.54797       -0.98392        0.17446
H          0.72254        0.51552       -0.75445
H          2.87784       -0.67426        1.11202
H          3.05409        0.82274        0.20225
H          2.83251       -0.44257       -1.95113
H          2.61930       -1.94642       -1.05669
H          4.92903       -1.71389       -0.08446
H          5.14846       -0.18740       -0.94325
H          4.86088       -1.35563       -3.14099
H          4.59716       -2.89841       -2.29689
H          6.78107       -2.29669       -4.26545
H          6.59031       -3.84276       -3.42233
H          9.05408       -2.00071       -3.49761
H          8.88910       -3.67604       -4.07105
H          8.82056       -2.67084       -1.17905
H         10.20987       -3.53559       -1.91242
H          8.76671       -5.60346       -2.09611
H          7.38355       -4.64884       -1.52203
H          8.23967       -4.59940        0.63100
H         10.52195       -6.40755       -1.31680
H          9.96579       -4.70459        2.14424
H         11.05723       -5.96729        1.98495
