34

N          1.96890       -0.84468       -0.16529
C          3.26402       -0.27251       -0.12788
N          3.92538        0.19363       -1.13534
N          3.77134       -0.22911        1.14891
C          5.03930        0.42843        1.45823
C          5.44352        0.13716        2.90111
C          6.76314        0.79277        3.31141
C          7.11114        0.52860        4.78198
N          8.36796        1.16657        5.13633
S          9.31715        0.48377        6.14828
O          9.97969        1.45088        7.02242
O          8.86012       -0.77998        6.75151
C         10.89905       -0.07073        5.16545
C         10.95015       -1.43068        4.38577
C          9.91056       -1.70228        3.24926
F          9.86901       -0.69536        2.35460
F         10.27559       -2.82988        2.57792
F          8.67660       -1.91024        3.73367
F         12.18373       -1.51382        3.76911
F         10.86504       -2.47323        5.25452
F         11.23417        0.91084        4.26671
F         11.94871       -0.17582        6.04942
H          1.67379       -1.07578       -1.10906
H          1.86177       -1.64757        0.45260
H          3.44978       -0.02790       -2.01405
H          3.07885       -0.20053        1.89150
H          4.97194        1.51851        1.28618
H          5.79149        0.04955        0.75194
H          5.51332       -0.95512        3.04024
H          4.64018        0.48497        3.57934
H          6.71694        1.88298        3.15125
H          7.58050        0.42420        2.67377
H          7.10575       -0.55865        4.98127
H          6.28965        0.94913        5.40143
