21

O          1.19622        0.06852        0.00624
C          2.44270        0.00726       -0.06678
O          3.19100       -0.20764       -1.06998
C          3.28448        0.23633        1.26207
C          2.94981        1.58305        1.94715
C          3.77599        1.79234        3.22705
C          3.36128        3.01061        4.05821
C          3.13898        2.73437        0.94507
S          2.83023       -1.21404        2.40280
O          4.64049        0.15681        0.93039
H          1.88101        1.52674        2.21365
H          4.84045        1.86890        2.95052
H          3.67452        0.88631        3.84475
H          3.52862        3.95766        3.52380
H          3.93004        3.06105        4.99953
H          2.29202        2.96457        4.31968
H          4.18991        2.79180        0.62441
H          2.85740        3.70054        1.38962
H          2.51698        2.58065        0.05326
H          1.54477       -1.21694        1.96872
H          4.53201       -0.10027       -0.04294
