55

C          9.41371        4.21106        4.16727
C          8.83583        3.14391        3.23477
C          9.37465        1.73721        3.51262
C          8.79851        0.66289        2.58545
C          9.33934       -0.74323        2.86031
C          8.76475       -1.82010        1.93451
C          9.30825       -3.22411        2.22509
C          8.74024       -4.32150        1.31211
Si         9.29828       -6.08844        1.76133
C          8.79767       -6.44344        3.53739
C          7.44395       -6.65008        3.87256
C          7.03283       -6.80022        5.20117
C          7.94712       -6.74041        6.27514
C          9.30382       -6.56487        5.92752
C          9.72221       -6.42061        4.60041
Al         7.43312       -6.75490        8.21821
S          5.02621       -7.06834        8.32320
O          4.49000       -7.87377        7.18961
O          4.55348       -7.43764        9.68049
C          4.33822       -5.38988        8.04931
S          8.52007       -8.32437        9.43391
C          8.46357       -7.29597        0.56319
C         11.17660       -6.22399        1.54613
H          9.01173        5.20919        3.94191
H         10.50945        4.26445        4.07883
H          9.18024        3.98694        5.21896
H          9.05216        3.41342        2.18673
H          7.73626        3.13344        3.32332
H          9.16034        1.46627        4.56141
H         10.47567        1.74547        3.42275
H          9.00961        0.93682        1.53608
H          7.69827        0.65391        2.68006
H          9.12678       -1.01713        3.90824
H         10.44017       -0.73399        2.76849
H          8.97667       -1.55319        0.88325
H          7.66454       -1.83398        2.02867
H          9.09342       -3.47905        3.27644
H         10.40916       -3.20285        2.14057
H          8.99982       -4.11441        0.25802
H          7.63685       -4.30617        1.36125
H          6.68679       -6.69309        3.08176
H          5.97413       -6.98144        5.40976
H         10.06255       -6.53745        6.71692
H         10.78797       -6.28106        4.39299
H          7.58302       -5.32814        8.96241
H          4.64879       -5.02577        7.06173
H          4.69497       -4.72629        8.84537
H          3.24776       -5.51299        8.09370
H          8.48696       -9.25823        8.45503
H          7.36998       -7.27708        0.67323
H          8.79716       -8.32646        0.75107
H          8.70028       -7.04569       -0.48190
H         11.71707       -5.52130        2.19573
H         11.46159       -6.00393        0.50638
H         11.52920       -7.23746        1.78517
