43

C          1.14587        0.32137        0.45622
C          2.54439        0.25608       -0.17871
B          3.01462       -1.24414       -0.68997
C          2.00506       -1.84387       -1.87021
C          1.68492       -0.96547       -3.07179
O          2.86341       -0.73018       -3.86783
C          2.65261        0.21225       -4.88413
C          3.96402        0.50460       -5.58768
O          4.30226       -0.55720       -6.47966
C          5.61928       -0.43570       -6.97090
C          4.60223       -1.26186       -1.15572
C          5.62102       -1.07149       -0.02484
C          7.09450       -1.14675       -0.45122
C          8.09837       -0.97195        0.69406
C          9.56280       -1.06322        0.25297
H          0.86925        1.32513        0.83180
H          1.07867       -0.38029        1.30469
H          0.36177        0.01989       -0.25904
H          3.27153        0.63855        0.56392
H          2.58776        0.98771       -1.01433
H          2.90619       -2.02823        0.28599
H          1.02256       -2.08129       -1.41659
H          2.38386       -2.81346       -2.24903
H          1.29102        0.01866       -2.73758
H          0.91106       -1.41305       -3.73857
H          2.26635        1.16702       -4.46236
H          1.90231       -0.14130       -5.62680
H          4.75455        0.62368       -4.82267
H          3.88216        1.45531       -6.15587
H          5.80358       -1.29381       -7.63137
H          6.36316       -0.44737       -6.15114
H          5.76065        0.49934       -7.55198
H          4.79123       -0.49085       -1.93101
H          4.82468       -2.22764       -1.65441
H          5.43595       -1.83431        0.75510
H          5.45135       -0.09743        0.47158
H          7.28914       -0.37873       -1.22310
H          7.27683       -2.11887       -0.94635
H          7.89992       -1.73547        1.46634
H          7.92242        0.00173        1.18382
H          9.77519       -2.03888       -0.21174
H         10.25942       -0.93717        1.09667
H          9.80031       -0.28945       -0.49392
