15

Cl         1.11128       -0.30086       -0.76687
Al         3.21391       -0.43222       -0.11870
C          3.37512        0.59091        1.67523
F          2.61612        0.07042        2.71658
F          4.67568        0.60315        2.17729
F          3.01782        1.93448        1.62995
C          4.22987        0.58130       -1.54952
O          5.69875        0.48726       -1.32184
C          6.48137        1.06889       -2.21305
F          6.27388        2.42213       -2.36098
F          7.77911        0.90976       -1.83843
F          6.37403        0.55169       -3.48835
H          3.68686       -1.95751        0.09638
H          3.96748        1.65076       -1.57212
H          4.02274        0.16493       -2.54865
