10

I          0.96956        0.48677       -0.06067
C          3.11138        0.09025       -0.12357
C          3.47083       -1.15568       -0.78967
C          3.13592       -2.59611       -0.23957
F          1.80695       -2.86489       -0.27477
F          3.74992       -3.62332       -0.92253
F          3.53590       -2.72062        1.05915
F          3.03138       -1.22555       -2.12210
F          4.89640       -1.21349       -0.81976
H          3.40386        0.04516        0.93319
