32

Cl         3.02842       -1.27819        0.82414
C          3.48158       -0.00710       -0.33396
C          3.68877       -0.35855       -1.66210
C          3.53377       -1.69875       -2.18214
C          3.74189       -1.99524       -3.52184
C          4.11890       -1.02885       -4.47103
C          4.28405        0.28540       -3.98175
C          4.09131        0.62021       -2.65323
C          4.71313        1.33935       -4.95496
F          5.95621        1.09201       -5.49318
F          3.87012        1.43740       -6.03767
F          4.78402        2.59594       -4.42498
C          3.54953       -3.41850       -3.95728
F          4.37418       -4.29857       -3.29888
F          2.27544       -3.88230       -3.73200
F          3.78477       -3.61710       -5.28959
C          3.59879        1.34177        0.28888
C          4.88971        1.60987        1.11284
C          6.14732        1.45034        0.25271
C          4.83031        2.98847        1.78094
H          3.24212       -2.49101       -1.49451
H          4.28224       -1.27955       -5.51458
H          4.25576        1.65195       -2.35179
H          2.73431        1.52581        0.95653
H          3.52933        2.11140       -0.50175
H          4.92239        0.84329        1.90749
H          6.19071        2.22257       -0.53275
H          6.14861        0.47162       -0.24617
H          7.06391        1.53595        0.85691
H          4.78834        3.78976        1.02406
H          5.71307        3.17638        2.41169
H          3.93539        3.08615        2.41505
