26

N          2.75841       -1.40931        0.82228
C          2.71947       -0.48227       -0.32446
C          2.94371        0.95231        0.12775
Sb         5.03921        1.48673        0.80586
C          5.64126        1.85175       -1.36852
C          7.06221        1.34366       -1.64705
C          7.22154        0.86684       -3.07564
O          7.66139        1.54153       -4.00966
N          6.81922       -0.44262       -3.28089
O          6.96276        2.10487        1.41659
H          2.38911       -2.32390        0.55945
H          2.15732       -1.04853        1.56569
H          1.76927       -0.56566       -0.90146
H          3.52604       -0.78501       -1.01950
H          2.26462        1.20882        0.95969
H          2.73338        1.64854       -0.69823
H          5.75467       -0.14429        0.54743
H          4.63509        1.12808        2.50223
H          4.50697        3.20762        0.98693
H          5.52751        2.91770       -1.61206
H          4.89387        1.28418       -1.94829
H          7.28814        0.50684       -0.95674
H          7.79794        2.13300       -1.45566
H          6.28508       -0.91016       -2.55656
H          6.66290       -0.72953       -4.24069
H          6.85391        3.05397        1.58843
