33

Cl         3.39556       -0.55101       -2.47612
In         3.02378       -0.00602       -0.09904
C          4.48549       -1.27672        0.96317
C          4.86752       -2.53078        0.45101
C          5.71515       -3.38544        1.16344
C          6.22665       -3.02300        2.42711
C          5.87492       -1.75135        2.92196
C          5.02714       -0.90033        2.20391
Si         7.27142       -4.21273        3.43041
C          9.01118       -4.41707        2.66235
C          9.90703       -5.39552        3.43157
C         11.28867       -5.58103        2.84193
F         11.99983       -4.41978        2.79323
F         12.03372       -6.46037        3.58422
F         11.25738       -6.07747        1.57326
C          7.48394       -3.58487        5.20446
C          6.45604       -5.92355        3.47923
Br         3.78843        2.46010        0.35006
H          1.30310       -0.08254        0.20017
H          4.49853       -2.84614       -0.52955
H          5.97221       -4.35708        0.72669
H          6.25834       -1.41806        3.89126
H          4.78752        0.08158        2.62304
H          9.48494       -3.42438        2.61814
H          8.89386       -4.75077        1.61963
H          9.45939       -6.39966        3.47772
H         10.06301       -5.06506        4.46953
H          8.02148       -2.62620        5.23385
H          8.04453       -4.30370        5.82011
H          6.50532       -3.43255        5.68157
H          6.34357       -6.33916        2.46742
H          5.45096       -5.85339        3.91845
H          7.03516       -6.64269        4.07747
