30

C          0.90840        0.66177       -0.34521
C          2.42008        0.43777       -0.24094
C          3.06911        1.16135        0.94442
C          4.58479        0.93434        1.06994
C          5.25959        1.66258        2.24250
Al         7.21924        1.22645        2.45976
C          8.38472        1.85676        0.91447
C          7.98415        3.09181        0.10548
S          8.12773        4.62116        1.10441
C          7.66282        5.82954       -0.16727
I          8.05575        2.30296        4.76758
H          0.47139        0.13488       -1.20738
H          0.67381        1.73211       -0.45459
H          0.39260        0.30572        0.56002
H          2.90571        0.76837       -1.17558
H          2.62672       -0.64372       -0.16140
H          2.58144        0.83769        1.88199
H          2.87274        2.24593        0.86282
H          5.05698        1.23626        0.11555
H          4.76611       -0.15385        1.15202
H          4.75148        1.38727        3.18491
H          5.12076        2.75389        2.13633
H          7.45089       -0.38169        2.63977
H          8.37179        0.99497        0.21934
H          9.43468        1.95065        1.24133
H          6.93576        3.01867       -0.23170
H          8.61175        3.24595       -0.79304
H          7.72703        6.82718        0.28723
H          6.63194        5.66857       -0.51765
H          8.34645        5.79017       -1.02952
