16

N          1.04773        0.02869        0.18272
C          2.37094        0.12239        0.00668
C          3.14147        1.34251       -0.11103
C          4.51986        1.34823       -0.29802
C          5.27896        0.16611       -0.38747
C          4.55316       -1.04230       -0.27247
C          3.18034       -1.07532       -0.08573
C          6.77224        0.18683       -0.58962
H          0.66502        0.98390        0.22069
H          2.60342        2.29565       -0.04913
H          5.03776        2.31311       -0.37869
H          5.09708       -1.99381       -0.33302
H          2.65712       -2.03199       -0.00060
H          7.13891        1.22235       -0.67152
H          7.09168       -0.33930       -1.50999
H          7.32990       -0.28446        0.24320
