28

N          1.03993        0.12674        0.17202
C          2.42543       -0.14803        0.03834
N          2.94631       -1.23743       -0.42238
N          3.20346        0.88616        0.49573
C          4.65940        0.77805        0.61058
C          5.21136        1.99978        1.34023
C          6.73517        1.99669        1.48146
C          7.24418        3.15005        2.35157
C          8.77456        3.33215        2.34676
C          9.24886        3.80962        0.91992
O          9.40383        5.06020        0.79896
O          9.38971        2.90836        0.04871
N          9.14260        4.29879        3.41102
H          0.46693       -0.52158       -0.35980
H          0.79630        1.08857       -0.05915
H          2.22020       -1.84844       -0.80622
H          2.76674        1.48028        1.19396
H          5.08841        0.69956       -0.39974
H          4.93258       -0.15066        1.14088
H          4.74632        2.05315        2.34435
H          4.90026        2.91398        0.80480
H          7.21850        2.05736        0.49336
H          7.06311        1.03761        1.92132
H          6.91865        3.01111        3.39813
H          6.79126        4.09916        2.01042
H          9.24607        2.35768        2.56068
H          9.20152        5.18695        2.88347
H         10.11748        4.11323        3.66152
