42

N          3.35832        0.87223        1.74614
B          2.57454        0.01818        0.73240
C          3.38711       -1.21503        0.01132
C          4.68869       -1.60041        0.39207
C          5.38211       -2.64169       -0.22410
C          4.78248       -3.35574       -1.27426
C          3.49045       -2.99266       -1.69339
C          2.82585       -1.94511       -1.06045
C          5.51590       -4.48287       -1.92611
C          5.61923       -5.83888       -1.12506
C          4.30946       -6.58701       -0.66830
C          3.29321       -7.19393       -1.72281
C          3.82727       -8.24416       -2.76776
C          2.69489       -9.09133       -3.46610
F          1.73254       -8.30028       -3.97424
F          3.25002       -9.79182       -4.47946
F          2.13467       -9.96807       -2.61380
F          4.50122       -7.60147       -3.75064
F          4.65989       -9.13265       -2.16376
F          2.33779       -7.82386       -0.97306
F          2.69562       -6.18722       -2.40145
F          4.71965       -7.63095        0.11459
F          3.57406       -5.75166        0.10390
F          6.35595       -6.73864       -1.84976
F          6.30298       -5.58982        0.02899
F          4.98471       -4.81008       -3.15645
F          6.84614       -4.15353       -2.15181
C          1.27544       -0.66778        1.45594
O          0.26723        0.37732        1.81642
C         -0.77165       -0.00957        2.51768
F         -0.47283       -0.52581        3.76549
F         -1.59747        1.05433        2.73238
F         -1.54930       -0.98661        1.91706
H          4.13367        1.38795        1.32964
H          3.74910        0.34179        2.52838
H          2.17130        0.73809       -0.19264
H          5.17642       -1.04622        1.20051
H          6.39249       -2.89887        0.09963
H          3.01904       -3.52416       -2.52099
H          1.83060       -1.66584       -1.42045
H          1.54426       -1.17748        2.39824
H          0.75107       -1.39243        0.81408
