43

C          0.62908       -0.40730       -0.06709
C          2.02166       -0.10485        0.50616
C          2.63169       -1.22017        1.33180
As         4.45174       -0.62127        2.16725
C          6.23145        0.25787        2.89538
C          7.29830        0.25329        1.81784
C          8.42388        1.27533        2.07430
C          9.53857        1.24754        1.04873
C         10.67823        2.28514        1.28963
F         10.19246        3.55030        1.27730
F         11.27319        2.08166        2.49103
F         11.63888        2.20649        0.33897
F         10.16232        0.01588        1.01120
F          9.07230        1.49531       -0.22404
C          4.53038       -2.30004        3.44560
C          4.31447       -3.62325        2.72946
C          4.87331       -4.85822        3.45331
C          4.63382       -6.16753        2.69366
H          0.23432        0.43847       -0.65636
H         -0.09288       -0.62243        0.73683
H          0.65515       -1.29038       -0.72537
H          1.96798        0.80954        1.12620
H          2.70745        0.14713       -0.32153
H          2.81647       -2.12112        0.72472
H          1.99201       -1.48470        2.19121
H          5.31252       -1.49678        1.06801
H          4.46493        0.65896        1.15081
H          3.61401        0.22930        3.29033
H          6.57039       -0.23190        3.82244
H          5.89105        1.27896        3.13091
H          6.82008        0.48316        0.84688
H          7.73607       -0.75170        1.71960
H          8.88396        1.10111        3.05948
H          8.00846        2.29494        2.08705
H          3.78661       -2.11775        4.23775
H          5.53551       -2.26071        3.89675
H          4.78858       -3.56424        1.72791
H          3.23768       -3.78170        2.54268
H          4.42604       -4.92746        4.46041
H          5.95617       -4.71560        3.61393
H          3.55638       -6.35174        2.55688
H          5.05765       -7.03715        3.21973
H          5.08670       -6.12772        1.69072
