17

Cl         1.78194        0.45448        1.58222
B          2.71489        0.05431       -0.01210
C          3.69456       -1.22605        0.31558
C          4.68686       -1.78757       -0.76303
C          5.69819       -0.78929       -1.42074
F          6.45063       -0.15423       -0.49801
F          6.54901       -1.48684       -2.22697
F          5.08783        0.13019       -2.18460
F          5.46606       -2.76971       -0.19318
F          3.99387       -2.37097       -1.78298
F          4.52545       -0.90760        1.39157
F          2.99666       -2.36454        0.71500
C          1.61933       -0.17685       -1.20221
F          0.76899        0.89970       -1.34792
F          2.19201       -0.33198       -2.45555
F          0.78939       -1.26794       -1.05872
H          3.40530        1.00264       -0.32088
