24

S          3.89602        3.16813        0.27068
C          4.32183        1.40135       -0.06221
C          4.65874        0.69108        1.25144
C          5.05889       -0.77311        1.04238
Ga         5.48857       -1.69725        2.79711
C          3.88932       -2.68412        3.60099
C          3.31193       -3.78692        2.71562
C          2.10480       -4.55741        3.24328
O          1.44408       -5.34689        2.59828
O          1.78871       -4.31251        4.55143
I          7.28833       -3.64334        2.26008
H          3.64009        3.53053       -1.00840
H          5.18203        1.36791       -0.74515
H          3.46318        0.91945       -0.54997
H          3.78664        0.76731        1.92488
H          5.47595        1.23567        1.75455
H          5.94718       -0.83859        0.39466
H          4.24993       -1.32111        0.52944
H          6.19027       -0.73917        3.86009
H          3.13647       -1.90454        3.81774
H          4.25948       -3.08355        4.56192
H          4.08906       -4.54127        2.49903
H          3.01536       -3.40202        1.72711
H          2.43354       -3.63074        4.84831
