29

C          2.50507       -3.80100       -0.54978
C          2.27849       -2.28942       -0.69499
C          2.79804       -1.51566        0.52838
Ga         1.90500       -2.03032        2.26133
S          1.94504        0.12488        3.50238
O          3.28698        0.46478        3.99166
O          1.13234        1.22843        2.98646
F          1.12701       -0.31320        4.94505
C          2.96708       -3.14550        3.58465
C          4.46533       -2.83285        3.61942
C          5.33411       -3.68209        4.54099
O          6.54624       -3.73883        4.49717
O          4.65318       -4.40785        5.47941
C          2.90982       -1.78014       -2.00116
H          1.98621       -4.20142        0.33419
H          3.57882       -4.02261       -0.43485
H          2.14102       -4.35377       -1.43002
H          1.18763       -2.12391       -0.76514
H          2.64032       -0.43568        0.37866
H          3.88956       -1.65743        0.61857
H          0.36057       -2.37608        2.19282
H          2.78360       -4.20094        3.31870
H          2.48602       -2.95119        4.55967
H          4.62312       -1.78475        3.92742
H          4.92260       -2.91098        2.62156
H          3.70115       -4.23663        5.30975
H          4.00172       -1.93035       -1.98545
H          2.72617       -0.70392       -2.13348
H          2.51016       -2.30649       -2.88392
