40

C          7.97860       -4.76507       -0.05746
C          7.60494       -3.29249        0.12952
C          8.10317       -2.39155       -1.00449
C          7.76151       -0.91017       -0.82152
C          8.25648       -0.02278       -1.96743
C          7.96543        1.47190       -1.72495
C          8.41549        2.44873       -2.79426
S          7.29087        3.14299       -3.80374
O          5.93727        2.96110       -3.27582
O          7.68203        4.43169       -4.36604
C          7.19842        2.07142       -5.40925
C          6.19215        2.41735       -6.55413
C          6.29839        3.77451       -7.35475
C          7.65515        4.14621       -8.05536
F          8.09982        3.12696       -8.82315
F          7.42689        5.20773       -8.87552
F          8.60630        4.49282       -7.18927
F          5.37660        3.67186       -8.37075
F          5.93136        4.81278       -6.57557
F          6.27724        1.41942       -7.50409
F          4.92570        2.38867       -6.05708
F          8.44627        2.01515       -5.97764
F          6.86959        0.78983       -5.03534
C          9.85045        2.71788       -2.91187
F         10.41503        3.10960       -1.69172
F         10.62157        1.58368       -3.23757
F         10.22498        3.65775       -3.80999
H          7.59070       -5.39364        0.75745
H          9.07121       -4.89495       -0.08907
H          7.57562       -5.15814       -1.00337
H          8.01335       -2.92820        1.08777
H          6.50901       -3.19683        0.21286
H          7.68170       -2.74722       -1.96153
H          9.19823       -2.50069       -1.10018
H          8.19581       -0.55451        0.13120
H          6.66728       -0.79725       -0.71490
H          7.77934       -0.33404       -2.91025
H          9.33893       -0.17213       -2.10387
H          8.43439        1.76614       -0.76796
H          6.88307        1.60978       -1.58801
