38

I          1.42298       -0.31984       -0.42292
Ta         3.95964       -1.19242        0.23320
C          4.97232        0.51496        1.30509
C          4.62399        1.11150        2.70268
C          5.33774        0.47678        3.95140
C          4.76182        0.92639        5.34762
F          4.75753        2.26722        5.49015
F          3.51201        0.46972        5.54609
F          5.54978        0.41058        6.32437
F          5.26394       -0.87435        3.93525
F          6.65245        0.84454        3.94979
F          4.92552        2.45339        2.75935
F          3.26892        1.00082        2.88391
F          6.36229        0.33612        1.27026
F          4.74253        1.59333        0.40796
C          4.97781       -1.12897       -1.70948
C          6.49650       -1.34513       -1.72798
C          7.12114       -1.58900       -3.11425
C          7.03443       -0.40497       -4.07720
N          7.66676       -0.75404       -5.34561
C          7.72016        0.11449       -6.41873
N          7.16310        1.27139       -6.54524
N          8.50369       -0.38932       -7.47737
H          4.63922       -1.84108        1.71967
H          2.99636       -2.52572        0.85019
H          4.70756       -2.76191        0.02377
H          4.71734       -0.13170       -2.12454
H          4.47548       -1.88086       -2.34815
H          6.74140       -2.21825       -1.10160
H          7.00207       -0.48579       -1.25523
H          6.63275       -2.45970       -3.58375
H          8.18849       -1.85246       -2.98520
H          7.51115        0.48524       -3.62116
H          5.98066       -0.14831       -4.26675
H          8.46305       -1.38076       -5.26405
H          6.73275        1.57055       -5.66637
H          8.31360       -1.36699       -7.68854
H          8.38329        0.19533       -8.30087
