37

N          3.93824        2.57846       -0.65988
C          3.09924        2.22841        0.50360
C          3.00973        0.71785        0.71357
C          4.33873        0.04307        1.12049
C          5.03298        0.58086        2.36318
S          4.35496        0.42108        3.85259
O          5.01612        1.25035        4.87410
O          2.88680        0.33758        3.82003
C          4.74947       -1.33525        4.60273
C          4.09230       -1.82375        5.92938
C          4.24262       -0.92148        7.20134
F          5.52812       -0.59915        7.43870
F          3.50911        0.19370        7.12098
F          3.79343       -1.62505        8.28388
F          2.75979       -2.02327        5.74120
F          4.63873       -3.04960        6.27608
F          4.39877       -2.28663        3.66398
F          6.11302       -1.43661        4.77047
C          6.49329        0.96888        2.27496
C          6.72535        2.36990        1.65354
C          6.28018        3.47436        2.60657
S          6.14121        5.14294        1.85653
H          4.16533        3.57381       -0.64436
H          3.42923        2.40063       -1.52741
H          2.07518        2.64769        0.43875
H          3.56699        2.66856        1.39688
H          2.63840        0.24111       -0.21409
H          2.26380        0.52587        1.49747
H          5.05256        0.16956        0.28987
H          4.14924       -1.04404        1.18932
H          7.04587        0.23251        1.65858
H          6.95493        0.94326        3.27357
H          6.16974        2.44544        0.70591
H          7.79687        2.50176        1.41362
H          6.93514        3.53445        3.48609
H          5.26865        3.25783        2.98115
H          7.39242        5.19935        1.33904
