31

O          3.13728       -0.27672       -1.15972
C          2.65576       -0.15647       -0.02078
O          1.86279        0.65402        0.49204
C          3.23011       -1.28190        1.03005
S          2.56441       -0.97152        2.75169
O          1.13430       -1.19204        2.84176
O          3.45714       -1.61643        3.71239
C          2.79958        0.93655        3.14901
C          3.30931        1.13146        4.62374
F          2.52378        0.49480        5.51197
F          4.58194        0.72682        4.78326
F          3.27012        2.46067        4.92255
F          3.70644        1.55365        2.35270
F          1.61122        1.55688        3.07544
C          2.86195       -2.73058        0.60150
C          1.34654       -3.10500        0.28684
C          1.13548       -4.27972       -0.76644
C          1.09464       -3.91555       -2.29946
F          0.00908       -3.17021       -2.58046
F          2.18429       -3.27774       -2.73034
F          0.98551       -5.08150       -2.99464
F          2.06508       -5.25471       -0.58137
F         -0.09122       -4.82934       -0.51164
F          0.75985       -3.54600        1.43049
F          0.65311       -2.03583       -0.16802
F          3.57984       -3.01658       -0.53072
F          3.27590       -3.65653        1.54434
C          4.76340       -1.19136        1.10098
H          5.06427       -0.21766        1.50265
H          5.13718       -1.25890        0.07301
H          5.20014       -1.98079        1.72460
