23

N          0.63108       -0.95081        0.02904
C          1.96033       -0.30101        0.02400
C          2.69598       -0.55456       -1.28662
C          4.08664        0.10510       -1.33706
N          4.72329       -0.14438       -2.60252
C          5.92960       -0.61869       -2.67922
C          7.23948        0.24847       -2.43318
C          7.39125        0.99274       -1.06631
F          7.32567        0.16640       -0.00253
F          8.60748        1.61530       -1.01135
F          6.45752        1.95830       -0.90590
F          8.40726       -0.46961       -2.58605
F          7.28173        1.25302       -3.38126
F          6.26170       -1.80880       -1.73665
F          6.21303       -1.15692       -3.96532
H          0.23486       -0.93316        0.97094
H          0.74989       -1.93878       -0.20693
H          2.60441       -0.63125        0.86452
H          1.80170        0.78304        0.15780
H          2.09421       -0.19238       -2.13539
H          2.83266       -1.63984       -1.43725
H          4.66575       -0.27864       -0.47249
H          3.94418        1.19465       -1.15730
