29

C          5.16532        4.12178       -0.10070
C          4.59216        3.09444       -1.07869
C          4.63441        1.66507       -0.52992
C          4.05199        0.60899       -1.47430
In         5.22075        0.08249       -3.25603
S          3.71498        0.70624       -5.40525
O          4.23788        0.46970       -6.76245
O          2.46621        0.00714       -5.01976
C          3.08449        2.57047       -5.45484
C          3.98797        3.56791       -6.21891
F          3.96397        3.33585       -7.54455
F          3.56797        4.85310       -6.02361
F          5.25676        3.48007       -5.77733
F          1.84363        2.59720       -6.00690
F          2.98873        2.99547       -4.15741
S          7.49073        1.49036       -3.08556
O          7.53350        2.93303       -3.31549
O          8.15398        0.98065       -1.87988
F          8.43824        0.86938       -4.34014
H          5.11396        5.13997       -0.51149
H          6.22154        3.90569        0.11763
H          4.61642        4.11581        0.85460
H          5.15423        3.14792       -2.02458
H          3.54911        3.35372       -1.32742
H          4.06891        1.64469        0.42264
H          5.67537        1.41357       -0.26483
H          3.06048        0.90410       -1.84752
H          3.92841       -0.35450       -0.95651
H          5.78464       -1.43409       -3.88533
