66

C          4.38458       -1.91804        3.88857
C          5.46071       -1.73504        2.80556
C          5.01268       -2.14893        1.38780
Ta         6.56290       -1.99325       -0.19386
C          7.30387        0.10401       -0.07377
C          8.01918        0.45164        1.10161
C          8.52876        1.73509        1.32809
C          8.35035        2.76772        0.38530
C          7.63805        2.44064       -0.78690
C          7.13732        1.15235       -1.00498
Si         9.02725        4.49670        0.69465
C         10.89025        4.41718        1.09852
C         11.59273        5.77438        1.27096
C         13.09082        5.67024        1.58912
C         13.79329        7.02961        1.68220
C         15.29486        6.93498        1.97303
C         16.00420        8.29267        2.00402
C         17.50802        8.19794        2.28172
C         18.21331        9.55639        2.28009
C          8.77535        5.58399       -0.83697
C          8.12895        5.30225        2.15950
C          8.09191       -3.22118        0.87367
O          9.39990       -3.41025        0.20392
C         10.37144       -3.93319        0.93236
F         10.73594       -3.17629        2.02839
F         10.09461       -5.18270        1.44330
F         11.48549       -4.06118        0.16443
H          4.74413       -1.61407        4.88619
H          4.06776       -2.97072        3.95052
H          3.48984       -1.32032        3.65556
H          6.35073       -2.31431        3.11161
H          5.78102       -0.67888        2.80828
H          4.13195       -1.54902        1.08675
H          4.65011       -3.19562        1.40174
H          5.12020       -2.61708       -1.01588
H          6.41121       -1.42198       -1.87171
H          7.05169       -3.24048       -1.36516
H          8.20095       -0.30173        1.87702
H          9.07738        1.92870        2.25706
H          7.47768        3.20473       -1.55417
H          6.60858        0.93754       -1.93721
H         11.38125        3.84263        0.29420
H         11.01735        3.81003        2.01192
H         11.10081        6.35515        2.07119
H         11.47244        6.37280        0.35095
H         13.58211        5.05946        0.81153
H         13.22505        5.11845        2.53607
H         13.30834        7.64114        2.46395
H         13.64352        7.57790        0.73491
H         15.77211        6.29526        1.20984
H         15.44922        6.41975        2.93752
H         15.53322        8.93626        2.76841
H         15.84639        8.80665        1.03898
H         17.97369        7.54080        1.52783
H         17.66633        7.70114        3.25394
H         18.10485       10.05867        1.30684
H         19.28877        9.45578        2.48459
H         17.78991       10.22588        3.04414
H          9.30266        5.17490       -1.71069
H          9.15072        6.60274       -0.66172
H          7.71009        5.66357       -1.09665
H          8.23854        4.69376        3.06887
H          7.05333        5.39125        1.95054
H          8.51718        6.30894        2.37542
H          7.67226       -4.22220        1.08041
H          8.30350       -2.74442        1.85311
