30

F          2.12105       -0.04991       -1.44697
C          2.28399       -0.67093       -0.23809
C          0.86546       -0.86778        0.40795
C         -0.10393        0.36295        0.20597
C         -1.35308        0.37798        1.16200
F         -2.01197       -0.79470        1.12821
F         -1.00412        0.64663        2.43255
F         -2.20300        1.35138        0.75237
F          0.56315        1.53115        0.42033
F         -0.58319        0.36228       -1.06556
F          0.25025       -1.94870       -0.13349
F          1.00081       -1.06102        1.74683
S          3.30164       -2.24275       -0.60317
O          2.59156       -2.92756       -1.67000
O          4.62085       -1.70322       -0.89053
N          3.18635       -2.87936        0.86579
S          3.54540       -4.38414        1.23886
O          4.27700       -5.13025        0.22848
O          3.97184       -4.43719        2.62444
C          1.81951       -5.20343        1.28582
C          1.84250       -6.75960        1.47000
C          0.46425       -7.40201        1.87382
F         -0.52268       -7.02433        1.03664
F          0.56772       -8.75288        1.81353
F          0.10986       -7.07573        3.13149
F          2.21664       -7.34501        0.30202
F          2.72681       -7.11389        2.44083
F          1.11112       -4.65830        2.31982
F          1.15526       -4.93464        0.13301
F          3.00293        0.15586        0.56377
