34

C          2.52035        1.32177       -0.88167
C          2.43136       -0.14013       -0.39805
C          3.49780       -1.03351       -0.98392
S          3.05626       -2.29444       -1.94032
O          1.72988       -2.11939       -2.55237
O          4.16521       -2.83974       -2.73869
C          2.67185       -3.86718       -0.84781
C          2.23041       -5.19326       -1.51761
F          1.08925       -5.04786       -2.22213
F          3.18138       -5.68096       -2.34120
F          1.98752       -6.17093       -0.57678
F          3.79603       -4.17500       -0.10472
F          1.67872       -3.54206        0.05313
C          4.94277       -0.87513       -0.58128
C          5.25709       -1.11794        0.90985
C          6.74023       -0.94383        1.24619
C          7.06667       -1.11596        2.73285
C          8.55941       -0.98415        3.04843
H          1.74673        1.94943       -0.40772
H          2.38806        1.36937       -1.97216
H          3.49898        1.76735       -0.64457
H          1.44322       -0.53835       -0.66689
H          2.47236       -0.13909        0.71064
H          5.29355        0.14819       -0.83333
H          5.55467       -1.55482       -1.19368
H          4.93172       -2.13553        1.18065
H          4.66238       -0.42647        1.53339
H          7.07784        0.05627        0.91602
H          7.33164       -1.66960        0.65878
H          6.70443       -2.10222        3.07028
H          6.49844       -0.37064        3.31625
H          9.14503       -1.74206        2.50575
H          8.76553       -1.10818        4.12210
H          8.94303        0.00282        2.74540
