40

N          0.81556       -0.34662        2.63080
C          1.52376       -0.15826        1.34659
C          3.05166       -0.16206        1.55185
C          3.83532        0.01399        0.30312
C          4.29006        1.16251       -0.29336
C          5.01825        1.16575       -1.55224
C          5.47897        2.32537       -2.12544
C          5.27076        3.60099       -1.52693
C          4.54984        3.62503       -0.29668
C          4.07232        2.47957        0.28836
C          5.80512        4.82761       -2.10865
C          7.07046        5.48648       -1.43692
C          8.39649        4.64386       -1.29075
C          9.20111        4.11821       -2.54464
C          9.77072        5.10696       -3.64148
C         10.76371        6.24970       -3.21034
F         11.78205        5.76530       -2.47247
F         11.28666        6.79669       -4.33506
F         10.15345        7.22469       -2.52487
F         10.47494        4.31344       -4.50680
F          8.75875        5.67954       -4.32982
F         10.28754        3.45929       -2.03147
F          8.45417        3.21188       -3.21598
F          9.28307        5.43092       -0.59136
F          8.14914        3.54619       -0.53756
F          7.42916        6.65923       -2.07564
F          6.74502        5.82981       -0.15238
F          6.15125        4.68358       -3.44881
F          4.87785        5.90459       -2.05531
F          4.05382       -1.20549       -0.36465
H         -0.19228       -0.25205        2.49337
H          1.08101        0.40717        3.26937
H          1.25186        0.77654        0.82065
H          1.25103       -0.99363        0.68280
H          3.33573       -1.10706        2.04838
H          3.30957        0.64739        2.26003
H          5.19376        0.21325       -2.05176
H          6.01314        2.26637       -3.07479
H          4.34819        4.58447        0.18358
H          3.49741        2.56701        1.21247
