24

N          0.95438        0.91550        0.54794
Ga         2.49360       -0.17001        0.03843
C          3.43179        0.75268       -1.55251
O          4.58594       -0.06566       -2.04326
C          5.23763        0.38200       -3.09547
F          5.84387        1.61230       -2.91820
F          6.23399       -0.49210       -3.41663
F          4.46909        0.53079       -4.23222
C          3.73327       -0.22351        1.65705
C          3.03546       -0.82534        2.87895
C          3.78724       -0.89905        4.20754
O          3.31628       -1.41017        5.22864
N          5.03803       -0.34405        4.19869
H          0.14558        0.68546       -0.03414
H          1.11168        1.91612        0.40493
H          1.97355       -1.62745       -0.38223
H          3.83523        1.74529       -1.29345
H          2.74098        0.87246       -2.40133
H          4.04919        0.81628        1.85824
H          4.63501       -0.80063        1.38756
H          2.70668       -1.85816        2.67233
H          2.10010       -0.27920        3.09016
H          5.41182        0.02742        3.33233
H          5.60041       -0.38410        5.03861
