33

F          0.99257       -0.00992       -0.30356
C          2.34972       -0.14686       -0.13378
C          2.68274        0.51312        1.26523
C          2.18530       -0.18888        2.59357
C          2.91834       -1.44259        3.23503
C          4.44789       -1.40408        3.64907
C          4.95085       -0.26366        4.60817
F          4.19639       -0.19247        5.72185
F          6.21968       -0.54407        4.97407
F          4.94793        0.93746        4.00540
F          4.66812       -2.57537        4.30778
F          5.22301       -1.38640        2.54183
F          2.21606       -1.69188        4.38349
F          2.78191       -2.50931        2.42475
F          2.18763        0.77222        3.56654
F          0.89635       -0.58276        2.40412
F          4.02948        0.70086        1.35708
F          2.10087        1.75076        1.27733
C          2.80097       -1.55353       -0.36797
C          1.86398       -2.59950       -0.41150
C          2.29316       -3.90676       -0.61477
C          3.65730       -4.19009       -0.76924
C          4.58712       -3.14561       -0.73373
C          4.16601       -1.83189       -0.53709
S          4.20470       -5.90913       -1.01389
O          3.77638       -6.57505        0.22854
O          3.46476       -6.33157       -2.21517
O          5.66221       -5.80757       -1.18911
F          2.94571        0.72125       -1.03779
H          0.80425       -2.38225       -0.28058
H          1.57397       -4.72538       -0.65477
H          5.64080       -3.39168       -0.86841
H          4.89532       -1.02130       -0.52098
