59

N          1.88823        0.52244        0.27217
C          2.32364       -0.66295        1.03360
C          2.92516       -1.73138        0.11630
C          4.26426       -1.36055       -0.53821
C          4.87628       -2.48047       -1.37009
P          6.70751       -2.08804       -1.95812
C          7.45389       -2.54482       -0.18146
C          7.19721       -3.68940        0.59069
C          7.71729       -3.83754        1.88247
C          8.53499       -2.84582        2.46206
C          8.82729       -1.71302        1.67163
C          8.29557       -1.57893        0.38714
Si         9.11337       -3.00353        4.23080
C         10.07532       -4.64101        4.46177
C         10.52754       -4.90538        5.90169
C         11.29757       -6.19422        6.09199
F         12.44268       -6.23853        5.35380
F         11.67441       -6.36371        7.39969
F         10.57070       -7.29734        5.75599
C         10.25114       -1.56940        4.71992
C          7.63425       -3.02388        5.41959
C          6.98147       -3.91994       -2.66009
C          6.84440       -3.90645       -4.16554
S          7.25966       -5.53752       -4.90945
C          7.01597       -5.16607       -6.67283
H          1.43905        1.19861        0.89110
H          1.18339        0.24446       -0.41416
H          1.50514       -1.11887        1.62959
H          3.09200       -0.33051        1.75134
H          2.18403       -1.99050       -0.66432
H          3.06232       -2.65130        0.71076
H          4.97547       -1.08189        0.26216
H          4.14027       -0.45386       -1.15080
H          4.29215       -2.65211       -2.29173
H          4.85837       -3.42055       -0.79492
H          6.59704       -0.69523       -1.44680
H          6.19768       -1.63531       -3.28785
H          8.10643       -1.77158       -2.39370
H          6.56448       -4.48630        0.18960
H          7.46728       -4.74149        2.45101
H          9.46766       -0.91978        2.07135
H          8.51726       -0.68289       -0.20618
H         10.94619       -4.61740        3.78827
H          9.43654       -5.46610        4.10945
H          9.66919       -4.95960        6.58801
H         11.18398       -4.10295        6.27119
H         11.14763       -1.53184        4.08465
H         10.57977       -1.65623        5.76613
H          9.73051       -0.60682        4.61771
H          6.95322       -3.85456        5.18546
H          7.05963       -2.09252        5.31558
H          7.93769       -3.11603        6.47332
H          6.27620       -4.63993       -2.21578
H          8.00315       -4.20452       -2.36446
H          7.51923       -3.15164       -4.60318
H          5.81574       -3.65472       -4.46784
H          7.22217       -6.08488       -7.23837
H          7.70454       -4.37914       -7.01292
H          5.98166       -4.85186       -6.87524
