36

N          5.58325        1.84111        1.51526
C          4.71772        0.79387        0.92521
C          5.38853        0.11423       -0.26639
C          4.54017       -0.98799       -0.91407
B          5.21134       -1.60749       -2.28507
C          4.20744       -2.71001       -2.98963
C          3.02329       -2.15329       -3.84541
C          1.93681       -3.16373       -4.36244
F          2.46986       -4.18964       -5.05696
F          1.19449       -3.67430       -3.35718
F          1.07408       -2.51694       -5.20187
F          2.31529       -1.21462       -3.13723
F          3.51725       -1.54092       -4.96608
F          4.87975       -3.56339       -3.88450
F          3.59900       -3.59366       -2.06934
C          6.69081       -2.29353       -2.03738
C          6.77404       -3.43331       -1.01038
C          8.19471       -3.93869       -0.76980
N          8.22691       -5.02714        0.23379
H          5.05566        2.39157        2.19587
H          5.85409        2.49380        0.77544
H          3.73143        1.18216        0.59827
H          4.51654        0.04450        1.70993
H          6.36345       -0.28403        0.06232
H          5.61841        0.88503       -1.02776
H          3.54179       -0.56662       -1.12627
H          4.36580       -1.78218       -0.16191
H          5.34285       -0.70036       -3.11681
H          7.38415       -1.49063       -1.72022
H          7.09667       -2.65996       -2.99784
H          6.14528       -4.28253       -1.32353
H          6.36057       -3.09228       -0.04157
H          8.83292       -3.07464       -0.49070
H          8.60348       -4.34090       -1.71283
H          7.75878       -4.70096        1.08294
H          9.19170       -5.22854        0.50454
