17

C          0.97479        0.25826       -0.24274
Al         2.70994       -0.50655        0.33179
S          3.72119        1.41977        1.44518
O          3.96226        2.58496        0.57124
O          2.98594        1.64939        2.70741
C          5.50307        1.00238        2.07959
F          6.37656        0.85886        1.05550
F          5.96082        1.99541        2.88012
F          5.51540       -0.14975        2.79665
C          3.91511       -1.00825       -1.27235
F          3.37153       -2.11607       -1.93862
F          4.05974       -0.05533       -2.26297
F          5.20644       -1.39792       -0.96642
H          0.38976        0.61612        0.61720
H          0.37445       -0.50710       -0.76023
H          1.10746        1.10231       -0.93481
H          2.77832       -1.68202        1.42559
