15

O          3.22325       -0.72940        0.99125
C          2.44290       -0.04800        0.27830
O          1.21422        0.11477        0.31045
C          3.23517        0.75207       -0.91076
C          2.86048        0.26045       -2.32893
C          1.37118        0.17112       -2.83774
F          0.66292        1.29560       -2.66837
F          1.40885       -0.07419       -4.19002
F          0.71315       -0.85631       -2.28222
F          3.53930        1.00832       -3.28033
F          3.33399       -1.03131       -2.47034
Cl         2.70490        2.56031       -0.84950
N          4.61639        0.64158       -0.69082
H          5.19801        0.53449       -1.51640
H          4.72438       -0.08646        0.03365
