60

C          9.19607       -5.69821        0.81633
C          8.63866       -4.28858        0.60430
C          9.21861       -3.58642       -0.62761
C          8.67109       -2.17308       -0.84719
C          9.24521       -1.47546       -2.08424
C          8.70684       -0.05761       -2.29843
C          9.26461        0.62957       -3.55102
C          8.74534        2.06042       -3.75851
Si         9.30694        2.90270       -5.37263
C          8.65481        1.94282       -6.85061
C          7.27295        1.90989       -7.12618
C          6.76280        1.17317       -8.19765
C          7.59209        0.41778       -9.05092
C          8.97357        0.45964       -8.77242
C          9.49222        1.20211       -7.70846
B          6.95047       -0.50883      -10.20082
S          7.51794        0.04924      -11.97031
O          7.04084       -0.84316      -13.02140
O          7.45092        1.48272      -12.21438
F          9.18313       -0.26448      -11.94405
C          7.27991       -2.10241      -10.04889
C          6.61686       -2.68949       -8.79726
C          6.82792       -4.17171       -8.51864
O          6.41828       -4.75391       -7.53475
O          7.52623       -4.86081       -9.47110
C          8.61158        4.66599       -5.37539
C         11.19906        2.99202       -5.41551
H          8.76121       -6.17799        1.70491
H         10.28846       -5.67746        0.94896
H          8.98249       -6.34296       -0.04922
H          8.83741       -3.67419        1.49928
H          7.54074       -4.33722        0.50839
H          9.01551       -4.19875       -1.52345
H         10.31859       -3.54167       -0.53548
H          8.87779       -1.55920        0.04804
H          7.57128       -2.21942       -0.93509
H          9.02830       -2.08495       -2.97843
H         10.34635       -1.43838       -2.00314
H          8.93542        0.55974       -1.41067
H          7.60531       -0.09155       -2.36879
H          9.01689        0.01764       -4.43485
H         10.36715        0.63912       -3.49122
H          9.03912        2.69712       -2.90416
H          7.64063        2.05389       -3.76261
H          6.57592        2.47073       -6.49401
H          5.68522        1.17518       -8.38312
H          9.66298       -0.09447       -9.41444
H         10.57396        1.20231       -7.54509
H          5.74836       -0.31145      -10.32635
H          8.37480       -2.25039       -9.99840
H          6.91250       -2.61763      -10.95492
H          5.52518       -2.53844       -8.83404
H          6.94409       -2.15787       -7.88968
H          7.76223       -4.21303      -10.16788
H          7.51218        4.65890       -5.36201
H          8.92666        5.20763       -6.27864
H          8.95526        5.23351       -4.49757
H         11.65755        1.99367       -5.38168
H         11.57920        3.56406       -4.55605
H         11.54897        3.48813       -6.33207
