23

N          5.32388        3.01612        2.10965
C          5.07187        1.68501        1.48572
Al         3.12005        1.34222        0.99145
C          1.94291        2.20126        2.42007
C          0.44983        1.87775        2.28091
C         -0.46993        2.49811        3.34669
C         -1.94855        2.12728        3.18247
O          2.65827        1.99076       -0.62320
H          6.17434        3.01432        2.67995
H          4.56057        3.23845        2.75007
H          5.39330        0.84594        2.14287
H          5.70002        1.60681        0.57795
H          2.86863       -0.30357        0.94897
H          2.07429        3.30160        2.39274
H          2.28998        1.88332        3.42422
H          0.30717        0.78056        2.29777
H          0.09808        2.20173        1.28386
H         -0.35791        3.59620        3.31964
H         -0.11912        2.18478        4.34588
H         -2.33291        2.46217        2.20607
H         -2.58296        2.57703        3.96291
H         -2.08751        1.03550        3.22761
H          2.41362        1.28538       -1.23455
