19

O          2.94656        0.91170        1.50580
C          2.86899        0.00004        0.51887
O          2.13308        0.17149       -0.43766
C          3.76736       -1.22420        0.67615
C          5.27209       -0.88367        0.50727
Nb         6.28028       -2.41519        1.70956
S          5.97665       -0.43227        3.28436
O          6.98269        0.57963        2.94117
O          4.59585        0.08636        3.47240
F          6.34671       -0.82374        4.85850
F          5.53640       -4.05516        1.07896
H          3.58322        0.61218        2.22174
H          3.44932       -1.96947       -0.06184
H          3.56191       -1.64674        1.68053
H          5.48688        0.17696        0.68096
H          5.61354       -1.13047       -0.51647
H          5.75056       -2.94851        3.28709
H          7.95345       -2.69356        1.18695
H          7.52253       -2.30102        2.93687
