28

O          0.92698        0.46816        0.01994
C          2.26010        0.14335       -0.19260
O          2.54353       -0.51003       -1.16940
C          3.20196        0.64232        0.87850
C          4.66909        0.79936        0.46548
N          5.38719        1.30446        1.60237
C          6.68066        1.56654        1.42631
C          7.43738        2.09638        2.52973
C          8.78488        2.40464        2.42345
C          9.50539        2.21637        1.22765
C          8.79159        1.69678        0.13632
C          7.43883        1.37645        0.20857
C          9.54497        1.47098       -1.14174
F         10.19493        2.60052       -1.58069
F         10.53007        0.51761       -1.01568
F          8.76314        1.06173       -2.18002
C          9.48448        2.94129        3.63662
F          8.86131        4.04096        4.17328
F          9.55152        2.02904        4.66391
F         10.77476        3.32306        3.39682
H          0.88311        1.01418        0.82402
H          3.15390       -0.06155        1.72899
H          2.85242        1.60941        1.28014
H          4.71098        1.47489       -0.42226
H          5.03777       -0.18428        0.09739
H          6.90134        2.25374        3.46697
H         10.56041        2.46529        1.15504
H          6.94579        0.97375       -0.67392
