33

S          1.43902       -0.12148       -1.25297
C          3.09902       -0.01226       -0.46866
C          3.32279       -1.25380        0.39111
C          4.68307       -1.17190        1.10164
C          5.17479       -2.44773        1.84536
C          4.65955       -2.51168        3.29633
C          3.14490       -2.26148        3.65865
F          2.26984       -2.98964        2.95942
F          2.95098       -2.54076        4.97718
F          2.81823       -0.94623        3.49364
F          4.98723       -3.69513        3.90114
F          5.30103       -1.52201        4.07427
C          4.79188       -3.73985        0.93570
O          5.35149       -3.69878       -0.18997
O          4.01009       -4.57854        1.42506
C          6.72805       -2.36639        1.87594
C          7.49216       -3.57519        2.43925
C          8.95680       -3.50154        2.01458
S          9.98706       -4.94024        2.50016
H          1.48372        1.06428       -1.90576
H          3.14073        0.90261        0.14036
H          3.86146        0.05126       -1.25784
H          3.31241       -2.14925       -0.24699
H          2.49213       -1.34980        1.10187
H          4.70753       -0.30045        1.77878
H          5.43678       -0.98405        0.32247
H          7.05417       -1.44262        2.38399
H          6.98996       -2.27981        0.81166
H          7.04918       -4.50648        2.05867
H          7.42800       -3.61417        3.53719
H          9.44064       -2.58439        2.38209
H          9.03129       -3.49401        0.91656
H          9.77623       -4.84737        3.83479
