38

C          0.64027       -0.14326       -0.36998
C          2.14280        0.08575       -0.18348
C          2.95604       -1.17843       -0.49837
C          4.49658       -1.03987       -0.55393
C          4.95306        0.24027       -1.40789
O          5.90721        0.90754       -0.93461
O          4.33290        0.38039       -2.49401
C          5.15604       -1.06967        0.82050
O          4.46980       -0.14801        1.74169
C          4.91791       -0.11117        2.98422
F          4.78249       -1.31052        3.66352
F          6.24071        0.21893        3.10906
F          4.20444        0.80835        3.68078
C          5.03459       -2.26394       -1.33881
C          6.55817       -2.31901       -1.52656
C          6.91757       -3.36883       -2.58503
C          8.38205       -3.72846       -2.72256
C          9.36066       -2.58516       -3.14524
F          9.49327       -1.66358       -2.17433
F         10.59311       -3.08520       -3.41218
F          8.91325       -1.97106       -4.26389
F          8.88369       -4.25373       -1.55011
F          8.52412       -4.71708       -3.68293
H          0.06260        0.76836       -0.15409
H          0.26255       -0.93893        0.29354
H          0.41224       -0.44275       -1.40546
H          2.34237        0.42894        0.84052
H          2.48239        0.88143       -0.86270
H          2.63602       -1.52915       -1.49298
H          2.68800       -1.98122        0.21768
H          6.19329       -0.72357        0.73329
H          5.09804       -2.07452        1.27444
H          4.55840       -2.20468       -2.33005
H          4.68881       -3.20301       -0.86206
H          7.06270       -2.56577       -0.57964
H          6.91601       -1.32411       -1.82907
H          6.56091       -3.04652       -3.57482
H          6.41924       -4.32714       -2.36144
