63

C          0.68278       -0.62482        0.73255
Si         2.46548       -0.29625        0.18986
C          2.68498        1.45701       -0.43927
C          2.53688        2.54553        0.44509
C          2.76462        3.85551        0.02538
C          3.15260        4.16227       -1.29566
C          3.28263        3.07184       -2.17880
C          3.05829        1.75649       -1.76322
B          3.42182        5.69811       -1.68198
S          5.25375        6.22320       -1.20128
O          5.48730        7.66372       -1.33212
O          5.58880        5.58144        0.07484
C          6.59103        5.41627       -2.39988
C          7.21394        6.36213       -3.46564
F          6.27114        6.92722       -4.23723
F          7.95238        7.32801       -2.88840
F          8.04584        5.65316       -4.28764
F          7.61232        4.95090       -1.63153
F          6.03451        4.35689       -3.05450
C          2.96808        6.21050       -3.16500
C          1.42490        6.21160       -3.40281
F          0.89877        4.96651       -3.31040
F          0.78913        6.99578       -2.49927
F          1.10922        6.68666       -4.63833
F          3.35213        7.51515       -3.42978
F          3.47961        5.44869       -4.22287
C          3.57530       -0.50119        1.72947
C          5.03214       -0.08500        1.47940
C          5.87078       -0.09658        2.74455
C          7.40751        0.19084        2.58101
C          7.90446        1.49453        1.84816
C          7.52450        2.93964        2.37442
C          7.96134        3.33218        3.83424
C          7.88096        4.87522        4.14365
F          8.82784        5.55734        3.48084
F          6.67521        5.37180        3.83890
F          8.09424        5.04577        5.47126
F          7.16155        2.70172        4.73046
F          9.24932        2.94994        4.05385
F          8.13678        3.79946        1.52088
F          6.18379        3.09044        2.27078
F          9.26417        1.41264        1.80979
F          7.44868        1.44435        0.56627
F          7.99326        0.15941        3.81181
F          7.92829       -0.84255        1.84712
F          5.37988        0.78954        3.67188
F          5.82497       -1.34280        3.34425
C          2.96710       -1.56060       -1.12502
H          0.35841        0.11820        1.47513
H          0.57130       -1.62377        1.18015
H         -0.00204       -0.55605       -0.12472
H          2.24652        2.37145        1.48677
H          2.65395        4.67227        0.74164
H          3.57494        3.25142       -3.21396
H          3.18708        0.94806       -2.48894
H          2.91942        6.45349       -0.86891
H          3.52537       -1.54085        2.08853
H          3.14695        0.12585        2.52785
H          5.06911        0.93024        1.05960
H          5.52041       -0.75157        0.75311
H          2.32624       -1.48134       -2.01479
H          2.87108       -2.58473       -0.73529
H          4.00673       -1.41974       -1.45328
