42

C          5.19805       -0.50337        1.20794
C          5.08826        0.98897        0.87647
C          3.67836        1.45845        0.49082
P          2.32316        1.25656        1.91030
C          2.45556        3.20671        2.51034
C          3.64980        3.45020        3.21468
C          3.99846        4.69270        3.74494
C          3.12302        5.77407        3.60482
C          1.91419        5.57125        2.95088
C          1.56938        4.31539        2.40354
C          0.18681        4.31256        1.78956
O         -0.61849        5.21374        1.98385
O         -0.18109        3.27962        1.00177
C          0.79712        0.95783        3.07712
C         -0.21016       -0.01956        2.44834
C         -1.64906        0.22807        2.87475
O         -2.26803       -0.50978        3.64829
N         -2.23273        1.33796        2.31777
C          3.71485        2.82739       -0.18626
H          6.23387       -0.78283        1.45682
H          4.87842       -1.11854        0.35233
H          4.55836       -0.77130        2.05894
H          5.78444        1.22040        0.04566
H          5.45065        1.58124        1.73455
H          3.26385        0.73265       -0.23443
H          3.30762        0.95399        2.96169
H          1.32959        1.56260        0.76567
H          2.22665       -0.17525        1.52368
H          4.33448        2.60948        3.36017
H          4.94981        4.81632        4.27019
H          3.37317        6.75648        4.01088
H          1.18740        6.37883        2.85008
H          0.56075        2.57955        0.89652
H          0.31731        1.91755        3.31411
H          1.19715        0.55668        4.02122
H          0.02895       -1.05784        2.70607
H         -0.14210        0.07298        1.34543
H         -1.67568        2.03636        1.82564
H         -3.12119        1.63039        2.70765
H          4.22443        3.58180        0.43091
H          2.69986        3.20080       -0.39367
H          4.24728        2.77475       -1.15282
