19

O          1.25578       -0.06100        0.25505
C          2.48303       -0.11483       -0.37528
O          2.87176       -1.17264       -0.81039
C          3.20572        1.21705       -0.47951
C          4.73048        1.09132       -0.35824
C          5.53412        2.36773       -0.61928
S          5.18706        3.67036        0.57392
O          4.88846        3.17963        1.89984
O          6.00565        4.83697        0.36537
F          3.67890        4.16950       -0.00239
C          7.11856        2.00070       -0.58113
O          7.66853        2.12681        0.52936
O          7.50917        1.58794       -1.69187
H          1.12406        0.84714        0.57892
H          2.81492        1.92035        0.27073
H          2.93995        1.64241       -1.46313
H          5.09105        0.35676       -1.09252
H          4.99458        0.70581        0.63735
H          5.29502        2.82559       -1.58981
