35

C          0.19060       -0.66738        0.15022
O          1.45526       -0.28168        0.64225
C          2.32066       -1.40359        0.82192
C          3.67543       -0.92972        1.32888
O          4.47937       -2.07687        1.46073
C          5.82664       -1.78024        1.95879
C          6.65810       -3.02105        2.07245
Ga         8.50229       -2.71742        2.93952
C          9.88235       -2.01435        1.61857
C          9.45844       -0.82039        0.74994
C          9.15881        0.42675        1.59752
C         10.49814       -0.48113       -0.33484
O          9.13711       -4.41348        3.54137
H         -0.41789        0.24175        0.05477
H         -0.32109       -1.37151        0.83600
H          0.26696       -1.15366       -0.84278
H          2.45388       -1.94498       -0.13507
H          1.88049       -2.11409        1.54905
H          3.55280       -0.39697        2.29615
H          4.11128       -0.20176        0.61112
H          5.71372       -1.27555        2.93974
H          6.27714       -1.04416        1.26238
H          6.79851       -3.48340        1.08214
H          6.15400       -3.75690        2.71875
H          8.31500       -1.77798        4.25909
H         10.15939       -2.86463        0.97035
H         10.79626       -1.75282        2.18442
H          8.52239       -1.09281        0.22481
H         10.06400        0.74958        2.13905
H          8.38975        0.22157        2.35467
H          8.81960        1.27254        0.97673
H         11.45402       -0.18395        0.12902
H         10.16971        0.34730       -0.98750
H         10.70101       -1.35597       -0.97097
H          9.03655       -4.41115        4.50317
