28

N          0.65167        0.17783       -0.91181
C          1.68853        0.06459        0.09984
Sb         3.77585        0.63829       -0.57624
C          3.00819        3.05252       -0.22485
C          3.44747        3.78813        1.04746
F          4.80586        3.85742        1.11830
F          2.99569        5.08416        1.16159
F          3.01051        3.13486        2.15498
F          3.33988        3.90665       -1.28379
F          1.59771        3.08921       -0.18591
C          5.82934        1.24793       -1.32519
C          5.98784        2.62569       -1.92256
S          7.67263        2.84244       -2.65123
C          7.59053        4.58923       -3.15040
H          0.96612       -0.26655       -1.78009
H          0.53492        1.16592       -1.14920
H          1.78846       -0.97814        0.43972
H          1.45012        0.70387        0.95949
H          3.08242        0.90167       -2.24680
H          4.38279        0.62208        1.12198
H          4.23733       -1.06731       -0.88397
H          6.02479        0.46227       -2.07069
H          6.49231        1.09409       -0.46144
H          5.86615        3.41307       -1.16796
H          5.25629        2.80252       -2.72485
H          8.55794        4.84682       -3.60162
H          7.41785        5.24344       -2.28392
H          6.79761        4.75813       -3.89312
