21

C          1.20532        0.10688        0.15354
C          2.73100        0.02802        0.09618
C          3.24268       -1.15209       -0.75554
N          2.78464       -0.96435       -2.11152
C          2.71516       -1.92781       -2.97034
C          2.18181       -3.35536       -2.62945
F          0.93544       -3.27738       -2.05121
F          2.03631       -4.18003       -3.70273
F          2.96769       -4.01672       -1.73261
F          2.04509       -1.56479       -4.15398
F          4.12772       -2.42932       -3.61713
C          4.78006       -1.23887       -0.67112
H          0.85928        0.99125        0.71165
H          0.78103       -0.78683        0.63875
H          0.80362        0.15185       -0.86820
H          3.14893       -0.05470        1.11544
H          3.13271        0.95563       -0.34774
H          2.83617       -2.07691       -0.28506
H          5.22493       -0.31449       -1.07203
H          5.14555       -2.07313       -1.28268
H          5.11801       -1.37285        0.37123
