68

C          1.73392        0.01969       -3.52082
C          2.99764       -0.05014       -2.65933
C          3.61426        1.32172       -2.36888
C          4.87216        1.26560       -1.49627
C          5.43002        2.64244       -1.10298
C          6.64709        2.59202       -0.17519
Ga         7.26819        4.34956        0.68596
C          5.92367        5.85212        0.35209
C          4.57580        5.68305        0.73909
C          3.60497        6.66632        0.55636
C          3.96298        7.90176       -0.01163
C          5.29697        8.11730       -0.38979
C          6.24268        7.10156       -0.21538
C          2.91801        8.94995       -0.24236
C          2.21518        9.58662        1.01903
C          3.08706       10.26567        2.14180
C          3.94028       11.56659        1.84454
C          3.19767       12.84812        1.30843
C          4.01907       14.18390        1.47240
F          5.26392       14.05740        0.97776
F          3.38500       15.16076        0.78744
F          4.09683       14.56284        2.76036
F          2.94134       12.70247       -0.01301
F          2.02538       13.02991        1.97214
F          4.50515       11.90258        3.04437
F          4.93701       11.25902        0.98282
F          2.22654       10.58873        3.15381
F          3.96924        9.35503        2.61953
F          1.30580       10.52093        0.60008
F          1.51892        8.60400        1.66059
F          3.40121       10.01051       -0.97643
F          1.84977        8.43443       -0.96792
C          9.17130        4.88696        0.13183
C         10.14089        3.93303        0.77165
O         11.53593        4.27013        0.49520
C         12.41431        3.33046        1.06776
C         13.85607        3.73328        0.82675
O         14.23972        4.76491        1.73324
C         15.55990        5.20731        1.50834
H          1.30766       -0.97748       -3.70621
H          1.94568        0.47989       -4.49803
H          0.95776        0.62970       -3.03394
H          3.74848       -0.68953       -3.15477
H          2.76365       -0.54746       -1.70228
H          2.85922        1.95770       -1.87246
H          3.84921        1.82630       -3.32330
H          5.65702        0.68390       -2.01305
H          4.64461        0.70526       -0.57088
H          4.61254        3.21389       -0.62853
H          5.67684        3.20770       -2.02001
H          7.50306        2.14403       -0.71207
H          6.43021        1.90998        0.66587
H          7.27260        4.14324        2.29239
H          4.26838        4.74280        1.20704
H          2.57037        6.47630        0.84661
H          5.58814        9.07171       -0.83066
H          7.27101        7.29879       -0.53337
H          9.37043        5.91303        0.48152
H          9.28532        4.87380       -0.96425
H          9.97330        2.89617        0.41194
H         10.01031        3.91931        1.87167
H         12.25552        2.32134        0.62503
H         12.24536        3.23200        2.16127
H         13.97099        4.08181       -0.21867
H         14.51549        2.85116        0.96920
H         15.77434        5.98886        2.24961
H         15.68468        5.63270        0.49289
H         16.29628        4.38633        1.63014
