58

C          0.87781       -0.59446        0.21175
C          2.35605       -0.26407       -0.01560
C          3.00076        0.48724        1.15479
C          4.48296        0.81242        0.94176
C          5.12430        1.58005        2.10278
C          6.60767        1.89775        1.88697
C          7.24513        2.70300        3.02644
C          8.73191        3.01873        2.80689
Si         9.50606        4.22161        4.07242
C          8.68060        5.86815        4.00956
C          8.74840        6.79297        5.09415
C          8.17466        8.04526        5.04487
C          7.44995        8.53691        3.89100
C          7.37809        7.58415        2.80055
C          7.97349        6.33412        2.87149
N          6.94159        9.76733        3.94925
C          6.22743       10.32238        2.82672
C          4.71411       10.42416        3.13861
C          4.04832        9.06476        3.35893
C          6.79508       11.72074        2.51901
C          9.37689        3.43167        5.80065
C         11.36837        4.29319        3.66749
H          0.44353       -1.12945       -0.64524
H          0.28537        0.31964        0.36793
H          0.74333       -1.22753        1.10191
H          2.46127        0.33857       -0.93387
H          2.91723       -1.19605       -0.20215
H          2.88658       -0.11027        2.07719
H          2.44458        1.42429        1.33486
H          4.59613        1.40020        0.01328
H          5.04065       -0.12644        0.77188
H          5.00651        0.99837        3.03480
H          4.57278        2.52251        2.26576
H          6.72443        2.46324        0.94498
H          7.16788        0.95549        1.74319
H          7.12050        2.14844        3.97335
H          6.68626        3.64452        3.15754
H          8.87167        3.46226        1.80451
H          9.32420        2.08573        2.80268
H          9.27745        6.50813        6.01160
H          8.25000        8.72732        5.89602
H          6.83556        7.84415        1.88985
H          7.87571        5.68042        1.99568
H          6.32241        9.72743        1.88922
H          4.20384       10.96809        2.32126
H          4.60812       11.03752        4.05083
H          4.09372        8.44517        2.44971
H          2.98949        9.16952        3.64299
H          4.56853        8.51474        4.15545
H          6.72970       12.35142        3.41925
H          6.25505       12.21833        1.69526
H          7.85678       11.64225        2.24589
H          8.32634        3.31713        6.10214
H          9.87019        4.05987        6.55659
H          9.85671        2.44106        5.82241
H         11.52365        4.69462        2.65548
H         11.84941        3.30350        3.72568
H         11.88191        4.96664        4.36941
