36

C          0.67205        3.19555       -1.24085
C          2.19294        3.12805       -1.07625
C          2.90380        2.44517       -2.25048
C          4.42591        2.33085       -2.08095
C          5.14991        1.69676       -3.25132
As         7.19071        1.49081       -2.94991
C          7.02937       -0.43562       -2.24058
C          8.34922       -1.02239       -1.74355
C          8.86400       -0.41221       -0.42901
C          8.00850       -0.76519        0.78654
N          8.64376       -0.29059        2.03166
F          7.39024        3.32501       -3.62313
H          0.18600        3.70501       -0.39456
H          0.23796        2.18640       -1.31707
H          0.39715        3.73745       -2.15934
H          2.43955        2.59432       -0.14224
H          2.59744        4.14771       -0.95618
H          2.68254        3.00110       -3.17929
H          2.47675        1.43581       -2.39602
H          4.63823        1.76101       -1.15620
H          4.85089        3.33475       -1.90634
H          5.09214        2.31519       -4.15684
H          4.77535        0.68323       -3.47640
H          7.04495        2.14459       -1.48508
H          8.77617        1.49124       -2.80668
H          7.31710        1.00239       -4.47962
H          6.64017       -1.02560       -3.08479
H          6.25987       -0.43234       -1.45175
H          9.11799       -0.85616       -2.51919
H          8.27845       -2.12248       -1.61408
H          8.92558        0.68238       -0.52369
H          9.89302       -0.77439       -0.24301
H          7.81799       -1.85984        0.78543
H          7.02970       -0.26943        0.70640
H          9.54939       -0.75110        2.14706
H          8.08024       -0.55891        2.84012
