18

S          1.08230       -0.00266       -0.63819
C          2.73733        0.03587       -0.08120
C          3.24397       -1.02474        0.74565
C          2.94400       -2.51734        0.37338
C          3.31546       -2.99887       -1.08845
C          4.76377       -2.73823       -1.63783
F          5.71006       -3.20160       -0.79675
F          4.89762       -3.41883       -2.81320
F          4.99852       -1.44679       -1.89578
F          3.16205       -4.36827       -1.10058
F          2.45218       -2.49562       -2.00435
F          3.65884       -3.34238        1.21418
F          1.63088       -2.84843        0.53414
F          4.62832       -0.98445        0.89458
F          2.80289       -1.01700        2.18635
S          3.57425        1.58885        0.02009
H          0.35715        0.36800        0.47421
H          4.34401        1.55068       -1.11074
