58

C          1.85038       -0.53565       -0.95707
C          3.28938       -0.60414       -0.43547
C          3.38720       -0.87352        1.07142
C          4.82405       -0.89453        1.60678
C          4.93508       -1.13226        3.12450
C          6.35851       -1.09169        3.65559
Sb         6.57169       -1.52567        5.88261
C          6.33333       -3.79677        5.37052
C          5.25699       -4.46783        5.95592
C          5.00706       -5.82696        5.70301
C          5.84123       -6.55313        4.85237
C          6.92580       -5.89787        4.25957
C          7.16161       -4.53845        4.51399
C          7.84474       -6.69951        3.38172
F          8.62785       -7.56816        4.10271
F          7.16287       -7.48213        2.48457
F          8.69852       -5.93275        2.65406
C          3.80788       -6.49053        6.31736
F          3.63303       -6.14915        7.62623
F          2.64169       -6.15018        5.68004
F          3.87141       -7.85628        6.27839
C          8.84101       -1.66350        5.49048
C          9.61377       -2.54198        6.42798
O         11.01093       -2.61246        6.02112
C         11.78589       -3.45654        6.84629
C         13.18984       -3.49687        6.25570
O         14.03844       -4.23376        7.13507
C         15.36348       -4.31947        6.65435
H          1.81624       -0.34119       -2.03947
H          1.28476        0.26622       -0.45786
H          1.31271       -1.47802       -0.77157
H          3.80819        0.34210       -0.66777
H          3.84084       -1.38885       -0.98158
H          2.89431       -1.83478        1.30218
H          2.80993       -0.10316        1.61394
H          5.31768        0.06183        1.35597
H          5.40039       -1.67493        1.07782
H          4.47719       -2.10950        3.36567
H          4.31697       -0.38097        3.64882
H          6.82308       -0.10254        3.50753
H          6.98806       -1.83823        3.14624
H          6.68985        0.21740        6.29813
H          6.78831       -2.01987        7.59485
H          4.78333       -1.53724        6.10684
H          4.58690       -3.91543        6.62451
H          5.65258       -7.60767        4.65621
H          8.01478       -4.06256        4.02585
H          9.18982       -0.62149        5.53403
H          8.94946       -2.01672        4.45463
H          9.21191       -3.57463        6.44365
H          9.57098       -2.16087        7.46694
H         11.36360       -4.48140        6.88860
H         11.83498       -3.07687        7.88809
H         13.56724       -2.46290        6.13072
H         13.16783       -3.96908        5.25427
H         15.94443       -4.88449        7.39541
H         15.82089       -3.31785        6.52946
H         15.41655       -4.84506        5.68066
