24

S          5.20702       -2.42227        2.65786
C          4.89381       -1.17180        1.34407
C          5.31823        0.20901        1.85076
C          5.07811        1.28567        0.79006
In         5.67689        3.31148        1.36765
S          3.71030        4.35467        2.84732
O          4.03790        5.37940        3.85279
O          2.66658        4.66844        1.84587
C          2.86243        2.98049        3.90980
F          2.44486        1.95070        3.12538
F          3.72097        2.47597        4.82470
F          1.78610        3.47141        4.55994
S          7.79008        2.93944        2.96410
O          8.65447        4.07777        3.25848
O          7.69211        1.87722        3.96263
F          8.60744        2.15927        1.65439
H          4.71830       -3.48867        1.98175
H          3.82343       -1.17736        1.09472
H          5.46839       -1.44368        0.44707
H          6.37929        0.18032        2.14083
H          4.75654        0.43883        2.76874
H          4.01261        1.35130        0.52148
H          5.64053        1.06335       -0.13038
H          6.10384        4.72984        0.46822
