36

C          1.07811       -0.23549        0.62078
O          2.40680        0.20733        0.80627
C          2.85366        1.02911       -0.26846
C          4.29287        1.44458        0.00005
O          4.69583        2.25377       -1.08464
C          6.07406        2.66341       -0.99328
C          6.43620        3.48038       -2.21291
P          8.14291        4.27455       -2.07951
C          9.08843        2.77957       -3.18182
C          9.16856        2.91939       -4.71301
F          9.81779        4.05592       -5.06036
F          9.82095        1.88541       -5.33032
F          7.92320        2.97058       -5.25649
F         10.39207        2.62932       -2.73770
F          8.48632        1.54280       -2.94018
S         10.15776        5.74386       -1.72661
O          9.82408        7.02507       -2.41111
O         10.40473        5.81381       -0.25876
C         11.79844        5.29308       -2.42500
H          0.81694       -0.85507        1.48851
H          0.97320       -0.84268       -0.29946
H          0.36795        0.61198        0.55780
H          2.21456        1.92898       -0.36150
H          2.79864        0.47875       -1.22805
H          4.93322        0.54395        0.09102
H          4.35558        1.99353        0.96174
H          6.71449        1.76503       -0.91789
H          6.21838        3.25541       -0.06697
H          5.74055        4.32664       -2.31494
H          6.35649        2.86459       -3.11787
H          8.66829        3.51410       -0.94969
H          7.66471        5.34717       -1.21070
H          8.00362        5.08223       -3.27690
H         11.70457        5.15310       -3.50765
H         12.15290        4.37800       -1.93925
H         12.45326        6.14385       -2.19517
