62

F          1.13015       -0.38010       -0.57344
C          2.42205       -0.81909       -0.40132
C          2.76137       -1.04473        1.04356
C          2.80749       -2.33516        1.55192
C          3.07639       -2.59509        2.93434
N          3.18470       -3.87906        3.33424
C          2.99541       -4.28481        4.61417
C          3.64192       -5.48210        5.05396
C          3.44426       -5.99753        6.32417
C          2.57626       -5.38422        7.26379
C          1.91158       -4.21652        6.82439
C          2.10998       -3.67777        5.56078
Si         2.30445       -6.14129        8.93326
C          1.74941       -7.96107        8.71029
C          0.59471       -8.08228        7.71080
C         -0.04263       -9.45470        7.52735
C          0.55580      -10.43978        6.45225
C          2.02975      -10.99337        6.55465
C          2.51422      -11.85901        7.78511
C          1.81864      -13.23028        8.15800
C          1.76016      -14.38203        7.08712
F          2.97164      -14.61184        6.54894
F          1.35035      -15.50996        7.70810
F          0.88899      -14.10608        6.10630
F          2.54244      -13.72143        9.20571
F          0.55580      -13.00058        8.58680
F          3.82536      -12.13979        7.53611
F          2.45676      -11.10033        8.90751
F          2.22848      -11.76155        5.44322
F          2.88468       -9.93979        6.48428
F         -0.26638      -11.52711        6.36991
F          0.51493       -9.79551        5.25083
F         -0.13855      -10.14674        8.71352
F         -1.34353       -9.28099        7.08540
C          3.88306       -6.20301        9.97890
C          0.96642       -5.22434        9.91211
C          3.31015       -1.43784        3.74363
C          3.26512       -0.15239        3.20665
C          2.98145        0.08217        1.85634
C          3.51905        1.00723        4.12842
F          2.53814        1.14692        5.07835
F          4.69072        0.88228        4.82577
F          3.58783        2.20754        3.48119
F          2.54358       -1.93565       -1.17068
F          3.21135        0.13795       -0.98409
H          2.64476       -3.19604        0.90483
H          4.30620       -5.97976        4.34459
H          3.98191       -6.91244        6.59867
H          1.20771       -3.70997        7.49200
H          1.55407       -2.78550        5.26820
H          1.46268       -8.37505        9.68905
H          2.62885       -8.52552        8.37432
H          0.89324       -7.70568        6.72110
H         -0.24758       -7.44795        8.02921
H          4.69175       -6.70209        9.42586
H          3.72895       -6.74522       10.92401
H          4.22392       -5.18539       10.21599
H          0.00654       -5.19972        9.37740
H          1.26596       -4.18409       10.10231
H          0.80228       -5.71089       10.88466
H          3.56049       -1.57226        4.79584
H          2.94787        1.08957        1.45056
