47

C          2.08675        1.26814       -2.17395
C          3.20746        0.65637       -1.32859
C          3.83051        1.65051       -0.34449
C          4.96365        1.07061        0.50843
C          5.55136        2.08042        1.50460
C          6.71501        1.55109        2.35819
Al         7.49045        2.92576        3.59335
S          5.71310        3.48941        5.24149
O          6.24140        4.26326        6.38563
O          4.51222        4.01611        4.55938
C          4.90436        1.90431        6.11606
C          5.75067        1.17255        7.18210
F          5.95970        1.93718        8.26819
F          5.13940        0.02536        7.60395
F          6.95271        0.81670        6.66689
F          3.74395        2.30028        6.70951
F          4.59626        0.99149        5.14076
C          9.11712        2.45984        4.68883
C          9.66745        1.03186        4.58749
C         10.91042        0.82823        5.47665
C         11.57205       -0.52429        5.32642
C         12.82404       -0.74314        6.23031
F         13.77649        0.18380        5.96618
F         12.49596       -0.64069        7.53961
F         13.37176       -1.96383        6.03494
F         10.70487       -1.55235        5.62613
F         12.00366       -0.73236        4.03156
H          1.65958        0.53985       -2.87949
H          2.45619        2.12379       -2.75985
H          1.26807        1.63700       -1.53759
H          3.99468        0.25844       -1.99187
H          2.81666       -0.21089       -0.76963
H          3.04208        2.04351        0.32144
H          4.21043        2.52348       -0.90536
H          5.76789        0.69755       -0.15235
H          4.59333        0.18938        1.06270
H          4.74227        2.43865        2.16348
H          5.88314        2.97360        0.94500
H          7.52897        1.19892        1.69366
H          6.39216        0.65636        2.91948
H          7.53903        4.43201        2.99860
H          8.89940        2.70594        5.74299
H          9.90402        3.17493        4.38358
H          9.93625        0.79881        3.54493
H          8.90135        0.29722        4.87702
H         10.63863        0.95567        6.53545
H         11.66693        1.59308        5.24294
