33

C          2.98059       -3.63751       -1.41866
O          4.35825       -3.60181       -1.11828
C          4.63303       -4.04423        0.20834
C          6.12142       -3.91036        0.51078
O          6.60838       -2.58153        0.57830
C          6.19754       -1.82950        1.74047
C          6.71683       -2.36421        3.06858
Nb         8.90694       -2.62188        3.43826
S         10.59718       -0.96049        4.09141
O         10.19354        0.02625        5.11197
O         11.86098       -1.70374        4.29219
C         11.15387        0.19003        2.59519
C         10.45751        1.57346        2.46218
F          9.11532        1.46941        2.45159
F         10.81877        2.40013        3.46274
F         10.82443        2.17704        1.28992
F         12.48940        0.44003        2.71122
F         10.95875       -0.49730        1.42781
I          9.85816       -4.71941        2.02391
H          2.85786       -3.26076       -2.44337
H          2.39372       -2.99780       -0.72983
H          2.57100       -4.66689       -1.36374
H          4.34629       -5.11152        0.31965
H          4.02659       -3.46396        0.93180
H          6.69175       -4.39265       -0.29757
H          6.33409       -4.47034        1.44095
H          5.08821       -1.75135        1.74236
H          6.59648       -0.82247        1.55464
H          6.18077       -3.28320        3.36535
H          6.47159       -1.62011        3.85337
H          8.55418       -1.11051        2.63166
H          9.47459       -2.54769        5.09642
H          7.97995       -3.26345        4.76602
