29

C          2.96866       -1.80943        0.22394
Al         2.17415       -0.05367       -0.17722
S          1.64480        0.82208        2.02026
O          0.45467        0.01101        2.35905
O          2.70819        0.94603        3.03125
C          0.94100        2.61505        1.92270
F          1.91339        3.50247        1.62660
F         -0.02054        2.71127        0.97478
F          0.39671        2.96113        3.11219
S          3.65685        1.35345       -1.52735
O          3.33556        0.85869       -2.88081
O          3.63416        2.80499       -1.29373
C          5.58375        0.84561       -1.47190
C          6.57975        1.56519       -0.51267
C          6.33875        1.30241        1.01303
C          7.07833        2.29208        1.98504
F          8.39559        2.36531        1.68623
F          6.55457        3.52604        1.92806
F          6.96046        1.83797        3.24927
F          5.01502        1.38686        1.28216
F          6.77075        0.04725        1.31929
F          7.85467        1.13832       -0.80265
F          6.53451        2.90221       -0.75102
F          5.64290       -0.49958       -1.22434
F          6.05349        1.06761       -2.72853
H          2.22527       -2.43942        0.73434
H          3.84944       -1.73203        0.87533
H          3.27387       -2.31730       -0.70218
H          0.85778        0.24281       -1.02315
