43

C          0.67780        3.94731        3.32866
O          2.03167        3.93395        3.72135
C          2.69932        5.15283        3.39967
C          4.16646        5.06768        3.77507
O          4.86242        4.26574        2.85385
C          6.28084        4.12111        3.21357
C          7.02475        3.26345        2.23604
In         9.22560        3.09836        2.76310
C         10.25225        1.89240        1.12629
C          9.85545        2.20040       -0.32147
C         10.60614        1.34281       -1.35810
C         10.21189        1.57340       -2.81980
N         10.97330        0.67793       -3.68739
C         10.80861        0.62025       -5.05473
N          9.93903        1.23493       -5.78643
N         11.74127       -0.23565       -5.67647
N          9.85551        5.18362        2.64453
H          0.25068        2.96968        3.58980
H          0.56581        4.10667        2.23790
H          0.10314        4.73979        3.85172
H          2.22524        5.99264        3.95114
H          2.60708        5.35980        2.31505
H          4.25234        4.66609        4.80816
H          4.57683        6.10260        3.79754
H          6.31484        3.69195        4.23496
H          6.71857        5.13714        3.26699
H          6.97703        3.70536        1.22735
H          6.58263        2.25637        2.18440
H          9.59478        2.47981        4.39381
H         10.07895        0.82130        1.33388
H         11.33690        2.06070        1.25315
H         10.03488        3.26788       -0.54688
H          8.76996        2.04607       -0.45950
H         10.45007        0.27735       -1.11827
H         11.69081        1.52953       -1.24900
H         10.37590        2.63272       -3.09835
H          9.13794        1.36532       -2.95890
H         11.90243        0.44468       -3.34885
H          9.41343        1.91530       -5.23167
H         11.86002       -1.12420       -5.19401
H         11.48245       -0.37556       -6.65009
H          9.80024        5.48771        1.66597
H         10.85148        5.26683        2.87261
