41

C          2.30321       -0.10639        0.65165
C          0.86153       -0.04609        0.20647
C          0.52040        0.07599       -1.14730
C         -0.81979        0.11358       -1.55188
C         -1.88995        0.03631       -0.63747
C         -1.51974       -0.08337        0.71992
C         -0.18590       -0.12410        1.13751
Al        -3.80848        0.10196       -1.25928
C         -4.76575       -1.59976       -0.64854
C         -4.06360       -2.73412       -0.19161
C         -4.71556       -3.91825        0.18048
C         -6.10945       -4.01294        0.11967
C         -6.83102       -2.90431       -0.32582
C         -6.16662       -1.72680       -0.70465
C         -8.33276       -2.95212       -0.35558
F         -8.82802       -4.22555       -0.32984
F         -8.89271       -2.30760        0.71809
F         -8.85464       -2.35477       -1.46492
C         -3.92798       -5.12843        0.59948
F         -2.69781       -4.82141        1.08838
F         -4.56360       -5.86018        1.56757
F         -3.72030       -5.99741       -0.44391
C         -4.86101        1.61124       -0.36538
O         -4.41922        2.92284       -0.91974
C         -5.01208        4.00574       -0.44956
F         -4.84972        4.20365        0.90455
F         -4.49479        5.10104       -1.06836
F         -6.37495        4.04409       -0.65310
H          2.98107        0.23016       -0.14543
H          2.59879       -1.13298        0.92417
H          2.47883        0.52388        1.53631
H          1.31852        0.15012       -1.89370
H         -1.03933        0.21401       -2.62005
H         -2.29815       -0.14457        1.48895
H          0.04960       -0.21475        2.20313
H         -3.88874        0.21881       -2.88331
H         -2.97361       -2.69421       -0.12089
H         -6.62015       -4.92903        0.41283
H         -6.77274       -0.88907       -1.06143
H         -4.71329        1.65510        0.72683
H         -5.94682        1.53684       -0.54545
