49

N          2.23953        0.62474       -0.36782
C          2.87320       -0.43719        0.39122
C          3.22188       -0.29095        1.73003
C          3.97356       -1.28216        2.48272
C          4.29756       -1.11689        3.81175
C          3.94745        0.04575        4.56460
C          3.21972        1.03047        3.83572
C          2.87572        0.88689        2.50677
Si         4.21980        0.16201        6.37352
C          2.81923       -0.74956        7.32919
C          1.43346       -0.32732        6.83056
C          0.27949       -1.04734        7.48541
F          0.31528       -2.39834        7.29773
F          0.22864       -0.85057        8.84198
F         -0.93078       -0.62401        7.00007
C          5.83335       -0.65479        6.95217
C          4.20885        1.96058        6.99130
C          3.22149       -1.63848       -0.43303
C          4.55606       -1.49724       -1.20460
C          4.79866       -2.69015       -2.14096
C          6.15793       -2.79157       -2.79293
C          6.59394       -1.61204       -3.72016
F          6.81577       -0.48067       -3.02149
F          7.73742       -1.91510       -4.38150
F          5.63750       -1.35622       -4.64659
F          7.15959       -2.93453       -1.85828
F          6.21256       -3.92683       -3.59467
H          2.68354        1.52727       -0.17579
H          1.25375        0.74958       -0.10810
H          4.30624       -2.19331        1.98006
H          4.86230       -1.92066        4.29849
H          2.91008        1.95221        4.34143
H          2.30971        1.68818        2.02599
H          2.91252       -0.58183        8.41506
H          2.95767       -1.82909        7.15651
H          1.35045       -0.49645        5.74559
H          1.25456        0.74682        6.99489
H          5.86617       -1.71428        6.65927
H          5.93762       -0.60534        8.04693
H          6.70190       -0.15736        6.49817
H          3.27159        2.47678        6.73825
H          5.03019        2.52841        6.53198
H          4.32998        2.00024        8.08428
H          2.41901       -1.81064       -1.17634
H          3.27012       -2.55225        0.18640
H          5.38000       -1.40415       -0.48165
H          4.51784       -0.55996       -1.77845
H          4.04528       -2.70644       -2.94395
H          4.68572       -3.63493       -1.58264
