36

C          0.80506       -0.74120        0.05615
O          2.19978       -0.52034        0.01074
C          2.88589       -1.24508        1.02808
C          4.37393       -0.93196        0.94444
O          5.01321       -1.74045        1.90674
C          6.43101       -1.48362        2.00620
C          6.95475       -2.37171        3.12700
C          8.48311       -2.41103        3.37773
C          9.05513       -0.96292        3.65813
O          9.68901       -0.75561        4.75225
O          8.87182       -0.11756        2.75854
C          8.75889       -3.39682        4.53469
C          8.09586       -3.07361        5.90074
C          9.10291       -2.96949        7.04620
O          9.03389       -3.66500        8.05529
O         10.05788       -2.06578        6.86227
C          9.21196       -2.94141        2.12713
H          0.35419       -0.15781       -0.75758
H          0.37012       -0.41108        1.02015
H          0.55506       -1.81125       -0.08568
H          2.72988       -2.33447        0.90019
H          2.50078       -0.96697        2.02857
H          4.54846        0.14495        1.14020
H          4.74504       -1.14590       -0.07945
H          6.61782       -0.41961        2.21753
H          6.91078       -1.71876        1.03761
H          6.62541       -3.40502        2.91029
H          6.43654       -2.07213        4.05154
H          9.84938       -3.45833        4.66560
H          8.43124       -4.40055        4.21272
H          7.35023       -3.82754        6.18056
H          7.58224       -2.10081        5.84296
H          9.89867       -1.55582        5.94228
H          9.12590       -2.22994        1.29661
H          8.79891       -3.91554        1.81399
H         10.28295       -3.07988        2.33938
