43

O          3.49141       -1.33341        1.25243
B          2.69806       -0.69313        0.24787
S          1.07441       -1.92956       -0.24762
O          0.25621       -1.41550       -1.36274
O          1.36705       -3.37137       -0.22172
C         -0.14414       -1.77389        1.31018
C         -1.20244       -0.64138        1.27124
F         -2.12010       -0.86050        0.31184
F         -1.87347       -0.56748        2.46339
F         -0.63239        0.56249        1.06334
F         -0.81836       -2.94826        1.44836
F          0.61170       -1.58973        2.44691
C          3.45963       -0.53561       -1.15493
C          4.73992       -1.09222       -1.34401
C          5.43885       -0.93913       -2.54034
C          4.86239       -0.21975       -3.59966
C          3.58754        0.34403       -3.43730
C          2.90906        0.18813       -2.23028
C          5.61291       -0.05283       -4.88683
C          5.72788       -1.31327       -5.82847
C          4.42397       -2.02633       -6.35424
C          3.41633       -1.29061       -7.33247
C          3.96331       -0.73112       -8.69924
C          2.84150       -0.43331       -9.76674
F          1.85711        0.32103       -9.24593
F          3.39922        0.24421      -10.79437
F          2.31131       -1.56751      -10.25640
F          4.62005        0.43311       -8.47998
F          4.81638       -1.62177       -9.27062
F          2.46695       -2.22644       -7.63302
F          2.81209       -0.27621       -6.67080
F          4.84366       -3.15157       -7.00754
F          3.68031       -2.41174       -5.29069
F          6.47492       -0.98268       -6.92725
F          6.40952       -2.27850       -5.14700
F          5.09010        0.95760       -5.66320
F          6.93648        0.28588       -4.64768
H          3.05507       -1.28191        2.11243
H          2.04953        0.29139        0.57542
H          5.19200       -1.64935       -0.52140
H          6.43545       -1.36820       -2.65237
H          3.13489        0.91040       -4.25098
H          1.91678        0.62835       -2.11872
