41

C          8.63410        3.75734        1.02187
C          7.42193        3.13865        1.72284
C          7.24273        1.64575        1.42872
C          6.01898        1.03538        2.12010
C          5.77200       -0.44911        1.81205
C          6.87056       -1.42772        2.28038
B          7.25098       -1.41986        3.85525
S          5.83306       -2.31461        4.83975
O          4.58462       -1.58749        4.57029
O          5.83539       -3.77161        4.70492
C          6.12742       -2.01540        6.76580
C          4.80006       -1.76947        7.55350
C          4.93225       -1.79869        9.12145
F          5.22981       -3.02841        9.58012
F          5.87626       -0.93800        9.55286
F          3.74876       -1.42950        9.67397
F          4.29476       -0.54741        7.23927
F          3.89101       -2.73029        7.23067
F          6.73535       -3.10244        7.29888
F          6.92981       -0.92977        6.93792
S          8.92268       -2.36830        4.16334
O          9.10514       -2.80647        5.54905
O          9.29710       -3.27562        3.07550
C         10.22505       -0.95595        4.00348
F         10.16913       -0.34031        2.79293
F         10.07576       -0.00593        4.95415
F         11.46160       -1.48736        4.13718
H          8.73866        4.82737        1.25510
H          8.55192        3.66069       -0.07190
H          9.56483        3.25587        1.32637
H          6.50705        3.68096        1.42617
H          7.51666        3.27966        2.81272
H          8.15461        1.11017        1.73796
H          7.15692        1.49833        0.33588
H          5.12289        1.60801        1.82062
H          6.11422        1.17036        3.20996
H          5.64479       -0.56201        0.71926
H          4.81581       -0.73978        2.26926
H          7.80539       -1.21634        1.73436
H          6.59638       -2.44740        1.96483
H          7.41470       -0.35083        4.39459
