12

I          1.24729        0.00088       -0.64849
N          3.21349        0.13271        0.02218
S          3.37809        1.21390        1.16923
O          3.19089        2.62742        0.81964
O          2.92578        0.85722        2.51915
C          5.28417        1.04514        1.25084
C          5.91207       -0.36849        1.45854
F          5.33819       -1.03157        2.47841
F          5.84744       -1.12753        0.35204
F          7.24261       -0.23003        1.76669
F          5.86612        1.57952        0.13868
F          5.67626        1.80408        2.32228
