81

C          2.46195        6.76163       10.91265
C          3.91732        6.49530       10.51945
C          4.10748        6.30417        9.01159
C          5.55856        6.03210        8.60279
C          5.73477        5.85335        7.09186
C          7.17512        5.56102        6.66164
C          7.33497        5.40588        5.14419
C          8.75958        5.04824        4.69377
Si         9.00372        4.95523        2.80738
C          8.68012        6.63643        2.03746
C          9.43948        7.76208        2.42344
C          9.18514        9.03254        1.89985
C          8.16167        9.26642        0.95026
C          7.41925        8.12804        0.56091
C          7.66264        6.85529        1.08676
Nb         7.54894       11.28924        0.33937
C          8.99164       12.95833       -0.27260
C          8.40846       14.38118       -0.28704
C          7.91207       14.97155        1.04214
C         10.27181       12.83558        0.55702
C          5.32734       11.37375        0.27847
C          4.64001       10.62932        1.43881
C          5.17105       11.02400        2.82240
C          4.55234       10.21837        3.96208
N          5.19290       10.55690        5.22805
C          4.78584       10.01548        6.42864
N          3.74261        9.28635        6.66424
N          5.65321       10.32288        7.49005
C         10.78555        4.39332        2.47796
C          7.82463        3.65729        2.08721
H          2.34967        6.89895       11.99827
H          1.81244        5.92460       10.61342
H          2.07969        7.66595       10.41658
H          4.28791        5.60268       11.05385
H          4.54899        7.33395       10.86027
H          3.74643        7.19879        8.47558
H          3.47280        5.46469        8.67299
H          5.93130        5.13348        9.12846
H          6.19438        6.86932        8.94197
H          5.37446        6.76348        6.58393
H          5.08132        5.03178        6.74637
H          7.53112        4.64165        7.16183
H          7.83569        6.37356        7.01224
H          7.01989        6.34242        4.65380
H          6.63081        4.63150        4.79200
H          9.06752        4.08498        5.14001
H          9.46969        5.79932        5.08410
H         10.24347        7.64894        3.16050
H          9.79778        9.87009        2.24956
H          6.62121        8.23034       -0.18424
H          7.04512        6.01656        0.74917
H          7.17101       11.80330       -1.31394
H          8.53538       10.59746       -0.96435
H          7.99375       12.22381        1.85708
H          9.25451       12.73245       -1.31523
H          7.58061       14.40702       -1.01642
H          9.17977       15.07518       -0.68940
H          7.05919       14.41017        1.44699
H          7.60199       16.02083        0.90835
H          8.69742       14.95241        1.81253
H         10.10978       13.08285        1.61714
H         11.07959       13.49569        0.17425
H         10.67025       11.80694        0.52248
H          4.93722       11.00995       -0.68560
H          5.08727       12.45668        0.31084
H          4.78800        9.54239        1.30916
H          3.54051       10.78227        1.42976
H          5.00465       12.09954        2.99906
H          6.26931       10.88888        2.84878
H          4.64649        9.13610        3.74566
H          3.47486       10.44119        4.04319
H          6.18689       10.75866        5.15281
H          3.27426        9.03110        5.79138
H          6.00439       11.27738        7.48067
H          5.22596       10.08260        8.38034
H         11.50816        5.13378        2.85024
H         10.96312        4.27358        1.39958
H         11.00215        3.43293        2.96997
H          6.77196        3.92546        2.25364
H          7.99932        2.67681        2.55504
H          7.97349        3.54282        1.00390
