34

C          1.92363        1.12104       -0.49139
C          2.52793       -0.27656       -0.35912
Nb         3.55306       -1.29960       -1.98031
C          2.08427       -2.01689       -3.54903
C          1.07439       -1.15677       -4.34872
C          1.65221       -0.12770       -5.37671
F          2.51648       -0.69955       -6.23587
F          0.62461        0.38583       -6.11574
F          2.25454        0.90665       -4.76777
F          0.19885       -1.94820       -5.06170
F          0.32015       -0.42341       -3.46310
F          2.65703       -2.89417       -4.46968
F          1.22047       -2.84260       -2.75657
C          5.81188       -1.62227       -2.11873
C          6.60566       -1.44890       -0.81412
C          6.23433       -2.34456        0.37751
C          6.05168       -2.96892       -2.80413
H          1.37385        1.44769        0.41141
H          1.21239        1.17593       -1.33029
H          2.71129        1.86225       -0.68921
H          1.73933       -1.02615       -0.11348
H          3.26293       -0.31557        0.46986
H          3.95340       -2.90374       -1.22709
H          4.39140        0.24820       -1.88879
H          4.03135       -0.58197       -3.52974
H          6.17096       -0.83724       -2.79785
H          6.52588       -0.39431       -0.49977
H          7.68378       -1.61528       -1.03279
H          5.22123       -2.13542        0.74747
H          6.93988       -2.19516        1.21109
H          6.25630       -3.41044        0.10713
H          5.82994       -3.82003       -2.14357
H          7.10110       -3.06989       -3.15434
H          5.41300       -3.08562       -3.69642
