25

N          2.65114       -0.15212        0.82881
C          2.83378       -0.18581       -0.59503
Nb         3.60159        1.43388       -1.83645
C          2.05144        2.87491       -2.61080
C          1.93939        4.36935       -2.20879
C          0.94525        5.28672       -3.01829
C          1.07485        6.83299       -2.75606
F          1.01396        7.12992       -1.44315
F          2.22018        7.33165       -3.25760
F          0.04578        7.47235       -3.37179
F          1.11055        5.12370       -4.36019
F         -0.33820        4.95124       -2.70136
F          1.53298        4.44992       -0.90528
F          3.18101        4.94182       -2.30426
F          2.47579        2.85684       -3.97339
F          0.74801        2.37722       -2.63426
S          5.74670        2.24181       -2.71978
H          1.92251       -0.78490        1.16734
H          2.45474        0.80020        1.13750
H          1.93181        0.17592       -1.22869
H          3.02533       -1.22119       -0.90850
H          3.38848       -0.07068       -2.80616
H          2.77503        2.12077       -0.42224
H          4.53424        1.46871       -0.36077
H          6.50375        2.03409       -1.61990
