35

C          3.51913        2.18868        0.06293
S          3.30771        0.43974        0.53083
C          3.50787       -0.33394       -1.11606
C          4.97692       -0.43708       -1.54252
C          5.25953       -0.56595       -3.06805
C          4.54593       -1.83766       -3.58363
C          4.90726       -2.57248       -4.93343
F          4.78930       -1.84315       -6.04389
F          6.17510       -3.07013       -4.88966
F          4.07753       -3.64839       -5.07131
F          4.73461       -2.88083       -2.65677
F          3.18513       -1.65076       -3.64008
C          4.73513        0.77011       -3.80540
O          4.81666        1.81132       -3.10121
O          4.36698        0.63588       -4.99176
C          6.81073       -0.66590       -3.21598
C          7.47301       -0.25759       -4.55829
C          7.76663        1.24932       -4.62047
C          8.77207       -1.04962       -4.76641
H          3.89227        2.73260        0.94014
H          2.56333        2.62383       -0.25720
H          4.23854        2.26806       -0.76480
H          2.92910        0.26316       -1.83223
H          3.02843       -1.31856       -1.03422
H          5.46494       -1.25055       -0.98331
H          5.47394        0.50273       -1.27291
H          7.11709       -1.69234       -2.95404
H          7.23312       -0.02001       -2.42939
H          6.78344       -0.48873       -5.38294
H          8.49832        1.52660       -3.84213
H          6.86189        1.84885       -4.46389
H          8.19806        1.51849       -5.59743
H          9.48801       -0.84456       -3.95236
H          9.26035       -0.76738       -5.71227
H          8.58852       -2.13327       -4.78731
