86

N          6.36108       -0.74997        0.52573
C          5.59108        0.33716       -0.13698
C          5.08216        1.36892        0.84075
As         3.72802        2.70577       -0.04463
C          2.19475        1.29432       -0.08180
C          1.62568        0.94566       -1.31045
C          0.48808        0.13529       -1.38327
C         -0.12444       -0.35971       -0.21251
C          0.45917       -0.00946        1.02389
C          1.59692        0.80290        1.08353
Si        -1.66811       -1.41557       -0.24176
C         -2.25360       -1.66926       -2.04155
C         -3.52138       -2.52226       -2.15918
C         -4.00388       -2.72595       -3.57952
F         -3.08086       -3.35155       -4.36414
F         -5.13369       -3.49990       -3.61865
F         -4.31736       -1.55359       -4.20048
C         -1.33818       -3.11544        0.53157
C         -3.06519       -0.57809        0.72894
C          5.05448        4.30164       -0.13514
C          6.30960        4.23654       -0.74849
C          7.08957        5.38698       -0.92129
C          6.63413        6.65018       -0.48793
C          5.37170        6.70287        0.14229
C          4.60506        5.54694        0.31402
Si         7.66197        8.18980       -0.76735
C          8.55058        8.06768       -2.45499
C          7.60626        7.79899       -3.63508
C          8.33558        7.74390       -4.96542
C          7.49895        7.31221       -6.22439
C          6.20481        8.11316       -6.63419
C          6.27289        9.64314       -7.03500
C          7.19530       10.06227       -8.24001
C          6.89322       11.49881       -8.81534
F          6.87970       12.42211       -7.83549
F          7.86773       11.81971       -9.69154
F          5.71734       11.53368       -9.46485
F          8.48856       10.05935       -7.83967
F          7.04493        9.18769       -9.26840
F          4.99254        9.98396       -7.36593
F          6.63100       10.36576       -5.94387
F          5.65639        7.44943       -7.68765
F          5.32277        8.05521       -5.59783
F          8.32096        7.29726       -7.31516
F          7.06758        6.03733       -6.00706
F          8.91908        8.95854       -5.26297
F          9.36237        6.82666       -4.92000
C          6.57631        9.74203       -0.77084
C          9.01449        8.40551        0.54053
H          6.50160       -1.51932       -0.13586
H          5.78331       -1.13446        1.27758
H          4.72947       -0.05178       -0.71784
H          6.26285        0.81092       -0.87195
H          5.89122        1.95686        1.29762
H          4.49274        0.89674        1.64386
H          4.19121        2.22659       -1.52392
H          2.65438        3.72728       -0.70563
H          3.26077        3.17346        1.43765
H          2.07896        1.33475       -2.23054
H          0.06762       -0.10516       -2.36514
H          0.01391       -0.37017        1.95897
H          2.01328        1.08126        2.05887
H         -1.43637       -2.13441       -2.61483
H         -2.42646       -0.67904       -2.49177
H         -4.36367       -2.07066       -1.61355
H         -3.36905       -3.52900       -1.74151
H         -0.57430       -3.66184       -0.04000
H         -2.24377       -3.73859        0.58160
H         -0.95851       -2.99877        1.55692
H         -3.33631        0.38255        0.26803
H         -2.74031       -0.36627        1.75774
H         -3.97022       -1.20128        0.78726
H          6.68087        3.27576       -1.12062
H          8.06471        5.29551       -1.41358
H          4.97459        7.66301        0.48846
H          3.61574        5.61072        0.78433
H          9.30349        7.26700       -2.39280
H          9.10656        9.00533       -2.61731
H          6.83971        8.58320       -3.71107
H          7.07487        6.84563       -3.49668
H          5.78543        9.68667       -1.53224
H          7.18040       10.63985       -0.96912
H          6.08322        9.88224        0.20167
H          9.67515        7.52739        0.56926
H          8.56949        8.51641        1.53968
H          9.63305        9.29386        0.34209
