51

C          0.57880       -1.99946        1.98957
O          1.62475       -1.21902        1.45163
C          2.64691       -0.96867        2.41504
C          3.75533       -0.14319        1.77694
O          4.70174        0.11489        2.79013
C          5.82160        0.92386        2.32784
C          6.76344        1.23744        3.44697
As         8.38466        2.37824        2.73451
C         10.00092        3.49212        1.89274
C         11.32611        2.78552        1.99131
O         12.37475        3.21361        1.06670
C         12.78084        4.54871        1.26209
C         14.05461        4.81467        0.48379
O         13.78336        4.90036       -0.91338
C         14.96314        5.02897       -1.67399
C          9.33620        2.34533        4.66355
C          8.37162        2.58263        5.79446
S          9.22670        3.02889        7.37102
C          7.78953        3.28103        8.45874
H         -0.17025       -2.13844        1.19827
H          0.09855       -1.50092        2.85466
H          0.93780       -2.99318        2.32351
H          3.06230       -1.92410        2.79104
H          2.23236       -0.41995        3.28286
H          3.33290        0.79691        1.36467
H          4.20394       -0.70109        0.92847
H          5.41765        1.85626        1.88461
H          6.33879        0.37613        1.51416
H          7.20291        0.32471        3.87584
H          6.25879        1.81874        4.23070
H          9.13357        0.99733        2.31985
H          7.66491        2.45630        1.29274
H          7.65403        3.75638        3.20125
H          9.98270        4.46964        2.39675
H          9.69032        3.60451        0.84367
H         11.20267        1.71623        1.75314
H         11.73768        2.85718        3.01818
H         12.99436        4.74239        2.33654
H         11.99718        5.26752        0.95175
H         14.77980        3.99890        0.67669
H         14.50686        5.76696        0.83425
H         14.66887        5.08073       -2.73093
H         15.63962        4.16276       -1.53307
H         15.52563        5.94949       -1.41386
H         10.07620        3.15690        4.59827
H          9.85739        1.38005        4.74358
H          7.76182        1.69166        6.00404
H          7.69266        3.41997        5.54984
H          8.16491        3.56944        9.44963
H          7.19993        2.35797        8.55873
H          7.14088        4.08309        8.07772
