17

C          1.04883       -0.10566       -0.00687
C          2.57181       -0.07778       -0.16883
C          3.10519        1.23799       -0.74310
C          4.63349        1.36337       -0.68728
N          5.09599        2.37147       -1.54180
N          6.54379        2.40198       -1.36965
H          0.68769       -1.07070        0.38601
H          0.54408        0.07194       -0.97003
H          0.71364        0.68397        0.68643
H          2.88857       -0.91234       -0.81795
H          3.04603       -0.25799        0.81226
H          2.65849        2.08818       -0.19632
H          2.79406        1.34483       -1.79770
H          5.08695        0.32481       -0.93015
H          4.91333        1.48390        0.41736
H          6.87597        3.03008       -2.11106
H          6.93339        1.46119       -1.66037
