18

O          1.04745        0.38691        1.01909
Ga         2.79836       -0.05375        0.57747
S          2.44181       -1.24858       -1.64409
O          1.56563       -2.42468       -1.58638
O          2.31207       -0.39412       -2.83000
F          4.00511       -1.95203       -1.87124
C          3.83131        1.57031        0.05403
C          5.32297        1.32120       -0.19431
C          6.10371        2.58568       -0.57799
H          0.55712       -0.42267        1.22271
H          3.40116       -1.24287        1.43074
H          3.69379        2.31704        0.85632
H          3.35654        1.98799       -0.84801
H          5.44264        0.56927       -0.99134
H          5.78292        0.87504        0.70472
H          5.69251        3.03435       -1.49528
H          7.17084        2.37487       -0.75567
H          6.03824        3.34635        0.21652
