33

N          7.20665        0.91828        3.97574
C          6.60065        0.64706        2.65086
C          7.10219        1.62765        1.59692
C          6.42657        1.46059        0.22758
N          6.95281        2.33550       -0.74669
C          6.31066        2.14058       -1.98361
C          6.87185        3.08368       -3.06811
C          8.40465        3.08640       -3.09508
C          9.00515        1.73127       -3.46356
N         10.46130        1.77270       -3.31906
C         11.28198        0.76505       -3.77322
N         10.97140       -0.27759       -4.47428
N         12.63217        0.95467       -3.40636
H          6.73088        0.37159        4.69679
H          7.04008        1.89961        4.21218
H          5.49239        0.68253        2.67112
H          6.87892       -0.38052        2.36266
H          8.19222        1.52202        1.47391
H          6.92493        2.66378        1.94155
H          5.30478        1.58617        0.39435
H          6.51077        0.36079       -0.06282
H          5.18306        2.29758       -1.96115
H          6.39115        1.06922       -2.38130
H          6.53773        4.11119       -2.84536
H          6.46244        2.81105       -4.05889
H          8.72211        3.33560       -2.06841
H          8.79045        3.85364       -3.78974
H          8.77743        1.48010       -4.51320
H          8.56233        0.95186       -2.82015
H         10.77318        2.23453       -2.46799
H          9.95419       -0.36938       -4.53892
H         12.95111        1.91309       -3.53090
H         13.21873        0.29722       -3.91403
