13

O          1.26104       -0.85266        0.30560
C          2.25636       -0.12621       -0.02795
O          2.59397        0.99455        0.40302
C          3.14248       -0.79920       -1.16954
O          2.73211       -2.17062       -1.25204
N          2.89122       -0.07726       -2.43443
C          4.63617       -0.73396       -0.86400
H          1.91694       -2.11086       -0.66696
H          1.87702        0.00941       -2.54172
H          3.18894       -0.70418       -3.18896
H          4.85782       -1.30922        0.04518
H          4.93511        0.31006       -0.71379
H          5.21598       -1.16647       -1.69728
