45

S          3.31646        1.14155        2.56118
C          3.10003        0.62270        0.79876
C          4.35014       -0.12601        0.33455
C          4.26049       -0.60679       -1.10095
As         5.95444       -1.73544       -1.55604
C          5.00329       -2.39963       -3.38357
C          4.86559       -1.31983       -4.26982
C          4.28508       -1.44134       -5.53345
C          3.83083       -2.69254       -5.96307
C          3.97322       -3.78837       -5.11958
C          4.54330       -3.66150       -3.83343
C          4.61659       -4.97860       -3.08473
O          4.47932       -6.05065       -3.66199
O          4.81347       -4.97493       -1.75752
C          7.61165       -2.92668       -1.91542
C          8.75464       -2.48013       -1.02277
C         10.08961       -3.16484       -1.36599
C         11.23649       -2.73969       -0.47057
C         12.61316       -3.38234       -0.82330
F         12.54361       -4.73391       -0.76767
F         12.99800       -3.03640       -2.07560
F         13.58223       -2.98332        0.03128
F         11.43790       -1.37664       -0.51512
F         10.99508       -3.06372        0.84729
H          2.12859        1.77617        2.70055
H          2.93484        1.52094        0.18851
H          2.21334       -0.02192        0.72981
H          4.52169       -0.99269        0.99856
H          5.22948        0.52941        0.45563
H          4.20389        0.22756       -1.81659
H          3.40914       -1.28442       -1.26215
H          5.20544       -2.95174       -0.65616
H          6.63955       -1.21494       -0.20360
H          6.62111       -0.54266       -2.41196
H          5.24691       -0.34165       -3.95462
H          4.19023       -0.56569       -6.18190
H          3.37553       -2.81393       -6.94832
H          3.65375       -4.78483       -5.42962
H          4.92818       -4.04144       -1.35675
H          7.83780       -2.77761       -2.98213
H          7.33617       -3.97755       -1.74595
H          8.50368       -2.68000        0.03063
H          8.87892       -1.38650       -1.10568
H         10.37758       -2.94097       -2.40463
H          9.99511       -4.25847       -1.28461
