13

S          2.27990        0.39714       -1.43811
N          2.13551        0.29978        0.26212
C          2.81451       -0.67134        0.85682
C          2.72110       -0.53026        2.40808
C          1.28148       -0.37598        3.01081
F          0.44191       -1.34056        2.58221
F          1.35607       -0.49310        4.37639
F          0.72790        0.82132        2.75922
F          3.27698       -1.61973        3.03252
F          3.42591        0.56872        2.83365
F          2.40360       -2.05767        0.58302
F          4.24446       -0.80759        0.60759
H          1.43356       -0.59853       -1.85562
