32

C          1.49896        0.06531       -0.15875
S          3.31175        0.04121       -0.05798
C          3.59043        1.57245        0.93061
C          5.06840        1.79874        1.19886
Ta         5.63304        3.33597        2.61521
S          4.06459        4.83358        3.77865
O          2.78745        4.08290        3.81576
O          4.55053        5.42768        5.03782
C          3.53459        6.49224        2.87489
C          2.98372        6.47098        1.41687
F          2.06376        5.50353        1.23831
F          2.37446        7.66318        1.13455
F          3.96439        6.31127        0.50781
F          2.53878        7.00367        3.65896
F          4.57755        7.36921        2.89434
C          7.86336        3.31280        2.44736
C          8.66389        3.77842        1.21381
F          8.09920        3.28130        0.07917
F          8.68383        5.12263        1.11548
F          9.95978        3.35581        1.23184
F          8.46332        3.88829        3.55610
F          8.13304        1.91728        2.55738
H          1.19165       -0.81596       -0.73640
H          1.14122        0.96850       -0.67209
H          1.04498        0.01088        0.84041
H          3.01858        1.46922        1.86549
H          3.17097        2.42015        0.37236
H          5.62006        1.97614        0.25719
H          5.52805        0.89950        1.67252
H          5.22161        2.81314        4.26927
H          6.11903        4.98009        2.21621
H          4.50802        4.11950        1.55563
