46

S          1.99561       -0.20276        1.68838
In         3.91267       -0.49567        0.01800
C          4.83770        1.55538       -0.14735
C          6.02618        1.79847       -0.86698
C          6.61130        3.06703       -0.94299
C          6.03082        4.17834       -0.29577
C          4.82847        3.95088        0.40513
C          4.25222        2.67648        0.47207
Si         6.87889        5.84681       -0.29668
C          7.06969        6.53099       -2.07584
C          7.57382        7.97943       -2.11654
C          7.91125        8.49333       -3.49945
F          6.85638        8.43627       -4.35940
F          8.31052        9.80443       -3.46166
F          8.93078        7.79820       -4.08115
C          5.90768        7.10986        0.72858
C          8.62966        5.69653        0.41810
C          2.94909       -1.02716       -1.95992
C          1.98480        0.02020       -2.53125
C          0.66405        0.17234       -1.77040
C          4.06309       -1.33114       -2.96794
H          2.79911       -0.06536        2.76830
H          5.07505       -1.69789        0.61234
H          6.52932        0.97056       -1.37866
H          7.54363        3.18721       -1.50762
H          4.33442        4.78220        0.91929
H          3.32206        2.54463        1.03616
H          6.10361        6.45249       -2.59666
H          7.76863        5.87264       -2.61613
H          8.48889        8.11000       -1.51835
H          6.82260        8.67082       -1.70666
H          4.91428        7.30612        0.30003
H          6.44419        8.06800        0.79317
H          5.76015        6.74469        1.75471
H          9.21349        4.95324       -0.14399
H          8.58835        5.35846        1.46317
H          9.18023        6.64911        0.39333
H          2.37878       -1.95546       -1.77597
H          1.74734       -0.24342       -3.58646
H          2.48691        1.00319       -2.58561
H          0.13031       -0.78990       -1.71606
H         -0.00312        0.89447       -2.26760
H          0.82493        0.51661       -0.73880
H          4.68114       -0.43876       -3.16532
H          3.66015       -1.65522       -3.95076
H          4.74086       -2.12205       -2.61171
