16

O          1.72829       -1.62065       -1.01907
C          2.88124       -0.97189       -0.68564
O          3.56763       -0.50030       -1.63685
C          3.44286       -0.97855        0.62404
Ta         5.43198       -1.25425       -0.64638
S          5.71485        1.18317        0.08217
O          4.74085        2.16595       -0.40182
O          5.92672        1.16116        1.54038
F          7.16397        1.79424       -0.48858
I          6.00804       -3.72995        0.34672
H          1.27802       -1.84590       -0.18725
H          3.05548       -1.68504        1.36278
H          3.67492        0.01140        1.02569
H          7.08668       -0.87105       -0.16771
H          6.06270       -0.27821       -1.95481
H          5.45539       -2.04682       -2.21291
