38

C          1.17461       -0.19838        0.14957
Ga         3.06634        0.44806        0.47168
C          4.15267       -1.06040        1.35273
C          5.42945       -0.83601        1.89651
C          6.18505       -1.86273        2.48786
C          5.67354       -3.15683        2.58130
C          4.39469       -3.40236        2.06745
C          3.66137       -2.37667        1.45753
C          3.84580       -4.79434        2.17991
F          4.55605       -5.70111        1.42833
F          3.89331       -5.27412        3.46633
F          2.55171       -4.90083        1.77968
C          7.56147       -1.55911        3.00589
F          8.43673       -1.23609        2.00100
F          7.57832       -0.49790        3.86800
F          8.12921       -2.60610        3.67762
C          4.03878        1.03120       -1.22733
C          5.49970        1.41975       -0.98670
C          6.24430        2.00739       -2.19677
C          7.71581        2.29900       -1.91005
N          8.39813        2.86501       -3.09256
H          0.70830       -0.55009        1.08350
H          1.12269       -1.02006       -0.58214
H          0.55453        0.62600       -0.23536
H          3.12716        1.67487        1.52381
H          5.85343        0.17162        1.87250
H          6.25081       -3.95171        3.05102
H          2.66997       -2.61006        1.06350
H          3.48147        1.89429       -1.63418
H          3.98023        0.23439       -1.99012
H          6.06128        0.53424       -0.63740
H          5.55596        2.14946       -0.15716
H          5.75022        2.93456       -2.53299
H          6.17401        1.29700       -3.04228
H          8.19416        1.37261       -1.53212
H          7.78998        3.04127       -1.09771
H          8.32827        2.20121       -3.86726
H          9.39668        2.97027       -2.90351
