44

O          1.17445        2.19375        0.40325
C          2.35846        1.84484        0.41134
O          3.44698        2.46121        0.39406
C          2.59728        0.24157        0.56511
S          4.30791       -0.29190       -0.07534
O          5.35950        0.18521        0.80345
O          4.27339       -1.70707       -0.42748
C          4.56063        0.64235       -1.76791
C          5.13030       -0.30808       -2.87635
F          6.26707       -0.90631       -2.46908
F          4.24286       -1.24359       -3.24721
F          5.42836        0.43352       -3.97870
F          3.40018        1.15324       -2.23328
F          5.46099        1.62733       -1.58886
C          2.62495       -0.18056        2.01961
C          3.11116        0.73125        2.97624
C          3.15892        0.38586        4.32241
C          2.74045       -0.88563        4.74284
C          2.27683       -1.80693        3.79554
C          2.22175       -1.45454        2.44918
C          2.81372       -1.25240        6.19846
C          1.68925       -0.67788        7.14500
C          0.17735       -1.04287        6.88774
C         -0.35383       -2.53009        7.03210
C         -0.12992       -3.27788        8.39936
C         -1.03238       -4.55578        8.59339
F         -0.93519       -5.38664        7.53932
F         -0.60813       -5.21150        9.69502
F         -2.32348       -4.22736        8.77424
F          1.15778       -3.68926        8.48222
F         -0.40082       -2.44606        9.43914
F         -1.70274       -2.44580        6.83125
F          0.16899       -3.28996        6.03983
F         -0.54937       -0.28702        7.76157
F         -0.15065       -0.66167        5.62816
F          1.97344       -1.03250        8.43407
F          1.74540        0.68216        7.06974
F          2.81764       -2.61612        6.38175
F          3.98169       -0.77495        6.76034
Br         1.25822       -0.77710       -0.47946
H          3.45863        1.70936        2.64287
H          3.53667        1.10581        5.04804
H          1.97042       -2.80531        4.10485
H          1.86220       -2.17409        1.71449
