39

C          1.34482        1.15446       -0.00312
C          2.71440        0.50269       -0.21870
C          2.64977       -0.85681       -0.92231
C          4.03284       -1.50214       -1.19925
C          3.98264       -2.84082       -1.88266
C          3.83188       -4.03460       -1.15801
C          3.75644       -5.34040       -1.78491
C          3.59444       -6.51388       -1.06428
C          3.49588       -6.53921        0.34361
C          3.56847       -5.28375        0.98046
C          3.72358       -4.09191        0.28589
C          3.31745       -7.82266        1.11143
C          3.96915       -2.83482       -3.38372
C          5.32100       -3.17779       -4.07710
C          5.18815       -3.17202       -5.59590
S          6.63133       -3.79717       -6.55679
H          1.42218        2.13009        0.50316
H          0.69272        0.51280        0.60953
H          0.82873        1.31789       -0.96219
H          3.22122        0.38168        0.75508
H          3.35650        1.18493       -0.80515
H          2.11410       -0.74747       -1.88238
H          2.05045       -1.56110       -0.32097
H          4.57646       -1.56448       -0.23602
H          4.61813       -0.78411       -1.80984
H          3.83915       -5.41650       -2.87142
H          3.54970       -7.46027       -1.61719
H          3.49020       -5.24311        2.07408
H          3.75182       -3.16388        0.86132
H          4.14074       -8.54344        0.94461
H          2.38293       -8.35667        0.85101
H          3.28042       -7.62698        2.19468
H          3.65149       -1.83881       -3.75086
H          3.21472       -3.54514       -3.78522
H          5.66364       -4.16484       -3.73278
H          6.08664       -2.44988       -3.75881
H          4.93210       -2.17024       -5.97142
H          4.37498       -3.84845       -5.90485
H          7.56575       -3.01129       -5.96992
