30

F          2.61334        1.74841        1.76480
C          2.53829        1.40792        3.09315
O          2.08541        0.16886        3.30308
C          2.89393       -0.91515        2.73450
Ga         2.08555       -2.69004        3.23164
S          3.53336       -4.03502        1.73261
O          2.74899       -4.92779        0.86427
O          4.44403       -3.06717        1.08868
C          4.84455       -5.20777        2.61961
C          4.30259       -6.60046        3.04837
C          5.20178       -7.40254        4.05733
F          6.46363       -7.51873        3.58186
F          5.24856       -6.81957        5.26274
F          4.70029       -8.65215        4.21118
F          3.08636       -6.44529        3.63430
F          4.16578       -7.38106        1.94117
F          5.87718       -5.37762        1.75553
F          5.30258       -4.53513        3.71169
S          2.41050       -3.08566        5.61247
O          1.27222       -2.42305        6.27214
O          2.75236       -4.45970        6.00508
C          3.91907       -2.06231        6.25764
F          3.77641       -0.74775        5.96980
F          4.01382       -2.19525        7.59764
F          5.07876       -2.48448        5.70503
F          3.78746        1.63726        3.60147
F          1.69243        2.28126        3.68437
H          3.92152       -0.84136        3.11389
H          2.91967       -0.81632        1.64105
H          0.63893       -3.21148        3.00468
