25

C          2.61850        1.33203       -1.11746
C          2.49311        0.10599       -0.19551
C          3.09682       -1.17056       -0.81015
Al         2.91343       -2.95296        0.16785
C          0.87704       -3.16760        0.64378
C          0.01130       -3.39677       -0.51619
O         -0.55394       -4.42995       -0.84455
O         -0.12713       -2.29753       -1.37391
N          3.63734       -4.29152       -0.90230
C          3.11037        0.41287        1.17706
H          2.14700        1.14151       -2.09334
H          3.68181        1.55693       -1.30371
H          2.15277        2.23347       -0.68192
H          1.40697       -0.05073       -0.02399
H          4.18635       -1.01114       -0.93688
H          2.71636       -1.28907       -1.84446
H          3.66224       -2.97875        1.62997
H          0.64959       -2.20983        1.14016
H          0.77872       -3.99042        1.36138
H          0.51099       -1.62285       -1.07725
H          3.16120       -4.52349       -1.77401
H          3.84223       -5.17848       -0.44340
H          4.19172        0.60125        1.07066
H          2.99913       -0.43807        1.86326
H          2.65626        1.30453        1.63980
