28

N          2.04064        2.97154        1.34819
C          2.32040        1.93411        2.35585
C          3.12054        0.77152        1.75039
B          4.59808        1.15575        1.20326
S          5.10447        0.14515       -0.36687
O          3.98351        0.22973       -1.31276
O          6.45454        0.43943       -0.85123
C          5.17671       -1.74348        0.00410
F          4.13518       -2.14080        0.77660
F          5.09683       -2.41351       -1.17270
F          6.31882       -2.10949        0.61019
S          5.80527        1.01747        2.70743
O          5.32378        1.93351        3.74951
O          6.11409       -0.36355        3.09191
C          7.59114        1.71288        2.33381
C          7.72546        3.14300        1.73709
F          7.21269        3.21474        0.49916
F          7.11499        4.05909        2.51529
F          9.04437        3.48799        1.65898
F          8.20697        1.72789        3.55379
F          8.26340        0.85506        1.53067
H          1.42001        3.68410        1.73355
H          1.55777        2.55774        0.54811
H          1.39634        1.51935        2.81244
H          2.89936        2.39986        3.16677
H          2.55030        0.36744        0.89530
H          3.15956       -0.04577        2.48798
H          4.72645        2.26832        0.74935
