19

S          1.06269        0.78339        0.01125
N          2.61896        0.18762       -0.09165
C          3.07201       -0.37151        1.14861
C          4.60477       -0.50288        1.11733
C          5.12864       -1.20228        2.37716
C          6.62330       -1.22611        2.58736
C          7.48804       -1.95123        1.50628
F          7.49989       -1.28273        0.33698
F          8.77635       -2.07373        1.91860
F          7.01450       -3.20054        1.27495
F          7.14802        0.04478        2.70225
F          6.92079       -1.87237        3.78237
H          0.19020       -0.32570       -0.07186
H          2.65476       -1.40218        1.36081
H          2.78772        0.22965        2.05456
H          5.04114        0.50271        1.02055
H          4.87962       -1.05978        0.20892
H          4.77610       -2.24467        2.41482
H          4.72779       -0.70195        3.27460
