18

O          1.71283        1.51860       -0.86089
B          2.48878        0.45056       -0.21962
C          3.38082        1.13737        1.02488
C          4.22371        0.22836        1.97423
C          5.22118       -0.76896        1.28433
C          6.29224       -1.41004        2.24436
F          5.72999       -1.95107        3.34476
F          6.94023       -2.40386        1.58209
F          7.22461       -0.51808        2.63617
F          4.53339       -1.80430        0.73972
F          5.93554       -0.14922        0.30331
F          4.98476        1.00022        2.83954
F          3.39021       -0.52155        2.75369
F          4.29781        2.06447        0.51197
F          2.59052        1.87026        1.91651
F          1.61771       -0.53149        0.35792
H          2.08273        1.67183       -1.73717
H          3.30052       -0.07074       -1.00437
