10

O          1.11818        0.20865        0.41272
C          2.29947       -0.04897        0.05552
O          2.74003       -0.72385       -0.89533
C          3.34334        0.64894        1.04446
C          4.84966        0.54596        0.89720
O          5.52414       -0.02945        0.08350
O          5.52679        1.26401        1.90678
H          3.08546        0.29236        2.05750
H          3.08503        1.72294        1.04678
H          4.83710        1.66121        2.46826
