38

C          1.22700       -0.56384        0.83328
C          2.72015       -0.23152        0.74471
C          3.12526        0.44799       -0.56859
C          4.61324        0.80800       -0.65776
C          5.02899        1.46926       -1.98381
C          6.50444        1.87215       -2.09165
Al         7.13307        2.57328       -3.90611
C          6.04054        4.19710       -4.50378
C          4.59485        3.93001       -4.94214
C          3.82837        5.14632       -5.49188
C          2.38262        4.83974       -5.90270
C          9.09471        3.08509       -3.76653
H          0.97029       -1.05476        1.78431
H          0.91993       -1.23683        0.01769
H          0.61234        0.34611        0.75233
H          3.31079       -1.15543        0.87070
H          3.00152        0.41987        1.59053
H          2.52137        1.36377       -0.70457
H          2.85905       -0.21137       -1.41482
H          5.22095       -0.10337       -0.50813
H          4.87694        1.48303        0.17724
H          4.38998        2.35865       -2.13850
H          4.76916        0.78107       -2.81059
H          7.13790        0.99487       -1.84974
H          6.73608        2.62344       -1.31020
H          6.91434        1.36684       -5.03123
H          6.59014        4.66398       -5.34632
H          6.04492        4.95762       -3.69696
H          4.01496        3.51562       -4.09610
H          4.58368        3.13476       -5.71162
H          4.38134        5.55392       -6.35692
H          3.83468        5.94665       -4.73043
H          2.34825        4.05741       -6.67757
H          1.86372        5.72616       -6.30134
H          1.79763        4.47014       -5.04534
H          9.26120        3.89292       -3.03144
H          9.50152        3.44048       -4.72953
H          9.72137        2.23255       -3.45088
