71

C          2.25194        1.60135       -1.60715
C          3.61106        1.13460       -1.07837
C          3.56788        0.64116        0.37177
C          4.93110        0.20044        0.91425
C          4.91286       -0.25750        2.38335
C          6.28898       -0.61162        2.95205
Ta         6.57433       -0.83253        5.11270
C          5.17068       -0.84684        6.82451
C          3.76212       -0.85695        6.70336
C          2.90899       -0.70133        7.79418
C          3.44003       -0.53156        9.08503
C          4.83702       -0.53705        9.24787
C          5.66584       -0.69603        8.14184
C          2.53228       -0.35030       10.25365
C          1.80419       -1.62896       10.82182
C          2.65044       -2.85371       11.33882
C          3.60719       -2.72934       12.59654
C          2.99835       -2.24819       13.96646
C          3.90755       -2.55910       15.21737
F          5.16984       -2.13412       15.02637
F          3.39796       -1.91072       16.28751
F          3.92802       -3.87396       15.50023
F          2.81529       -0.90765       13.93659
F          1.80415       -2.85647       14.19472
F          4.09427       -3.99263       12.79846
F          4.65068       -1.92413       12.29127
F          1.74974       -3.83899       11.64060
F          3.43613       -3.30288       10.33120
F          0.97445       -1.26367       11.85101
F          1.01896       -2.13778        9.82893
F          3.17864        0.22165       11.33191
F          1.47263        0.49413        9.94206
C          8.74577       -0.64605        5.27783
C          9.78869       -1.66328        4.81749
C         11.24224       -1.17437        4.93810
C         12.29320       -2.16973        4.43722
C         13.73130       -1.65148        4.54260
C         14.77788       -2.63780        4.01797
H          2.31621        1.94632       -2.64979
H          1.85740        2.43325       -1.00416
H          1.51061        0.78869       -1.56929
H          4.33791        1.96162       -1.15548
H          4.00173        0.32957       -1.72411
H          2.85045       -0.19510        0.45043
H          3.16540        1.44447        1.01457
H          5.64555        1.03748        0.81431
H          5.33333       -0.61528        0.28693
H          4.24294       -1.12741        2.48820
H          4.45591        0.54908        2.98566
H          6.98907        0.23540        2.75362
H          6.71404       -1.48849        2.42562
H          5.48623       -2.20591        4.75349
H          6.16673        0.88220        5.59551
H          7.01116       -2.29207        6.05704
H          3.31261       -0.99178        5.71441
H          1.82706       -0.70149        7.64815
H          5.26909       -0.40495       10.24055
H          6.74772       -0.69476        8.31202
H          8.89735       -0.40401        6.35016
H          8.89834        0.31785        4.73508
H          9.60406       -1.94032        3.76289
H          9.66329       -2.59349        5.39689
H         11.44816       -0.92376        5.99434
H         11.34655       -0.22673        4.37947
H         12.07822       -2.42710        3.38427
H         12.20440       -3.11480        5.00223
H         13.95086       -1.40713        5.59617
H         13.81304       -0.69966        3.99010
H         14.73910       -3.58901        4.57046
H         15.79869       -2.23885        4.11172
H         14.60639       -2.86875        2.95545
