46

C          7.92882        4.16051        0.68399
C          7.64098        2.65902        0.60751
C          7.85775        2.06450       -0.78726
C          7.58148        0.56044       -0.86833
C          7.82078       -0.05283       -2.25712
C          7.57511       -1.56052       -2.31725
Ta         7.99574       -2.79730       -4.10623
C          6.51747       -3.51600       -5.55562
C          6.42551       -3.26684       -7.06905
C          5.89067       -1.86454       -7.38373
C          7.78329       -3.49485       -7.75094
C          9.77498       -4.10111       -4.43606
C         10.83596       -4.04941       -3.33758
C         12.05276       -4.96413       -3.47586
O         12.95766       -5.04583       -2.66907
O         12.07680       -5.72098       -4.61202
H          7.76738        4.55857        1.69703
H          7.28012        4.72348       -0.00439
H          8.97071        4.37718        0.40222
H          6.60191        2.46554        0.92546
H          8.28090        2.12374        1.32993
H          8.89728        2.25936       -1.10739
H          7.21579        2.59483       -1.51393
H          6.53884        0.36251       -0.55769
H          8.21706        0.03577       -0.13140
H          8.85568        0.15935       -2.57395
H          7.17659        0.45129       -2.99756
H          6.52535       -1.78401       -2.03390
H          8.17924       -2.06931       -1.53463
H          7.34977       -3.93019       -2.80159
H          9.38333       -1.64738       -4.19636
H          7.50584       -1.23279       -4.85773
H          5.55479       -3.26236       -5.06390
H          6.64852       -4.60986       -5.37142
H          5.71569       -3.99287       -7.51762
H          6.53642       -1.10205       -6.92469
H          4.87886       -1.73036       -6.97124
H          5.84112       -1.69153       -8.47105
H          8.52000       -2.75549       -7.39821
H          7.70844       -3.39924       -8.84631
H          8.17949       -4.49682       -7.52567
H         10.19107       -3.81284       -5.42085
H          9.33443       -5.11771       -4.51923
H         10.40008       -4.28369       -2.35241
H         11.22848       -3.02423       -3.23876
H         11.24631       -5.48468       -5.08796
