25

C          1.22835       -0.14880       -0.50345
Ta         3.27612        0.43910       -0.02020
S          3.97671       -1.12185        1.85664
O          5.09169       -0.31551        1.15220
O          3.99864       -1.10888        3.33120
C          4.62666       -2.91028        1.52154
F          3.62628       -3.79947        1.77581
F          5.05087       -3.11803        0.26078
F          5.65449       -3.20282        2.35456
C          4.80705        1.09252       -1.45257
C          6.06670        0.27740       -1.78165
C          5.79867       -0.86864       -2.76191
H          0.95615       -1.15836       -0.16159
H          1.10271       -0.11348       -1.60092
H          0.52312        0.58398       -0.07381
H          3.43264       -1.21934       -0.69600
H          3.05211        1.07550        1.66556
H          2.58544        1.99134       -0.66817
H          5.08835        2.04137       -0.93912
H          4.30278        1.41641       -2.38276
H          6.49405       -0.13548       -0.85439
H          6.84739        0.93335       -2.21459
H          5.04868       -1.55730       -2.34733
H          6.71427       -1.44070       -2.97938
H          5.40661       -0.48601       -3.71890
