10

O          1.21634       -0.03845        0.68866
C          2.26866       -0.02482        0.01929
O          2.82363       -0.89061       -0.70046
C          3.12427        1.31699        0.13241
I          2.69395        2.58217       -1.72730
F          2.73203        2.11263        1.19493
C          4.62220        1.11156        0.21526
H          4.95387        0.50501       -0.63239
H          4.82329        0.54533        1.14009
H          5.16526        2.06510        0.25332
