19

N          3.23346       -1.06348        0.78530
C          2.59179       -0.08875       -0.13865
B          2.99448        1.46125        0.11743
S          1.77104        2.63657       -0.79554
O          0.41702        2.46504       -0.29067
O          2.23389        3.98319       -1.08847
F          1.70586        1.91927       -2.31790
S          4.83532        1.85422       -0.33303
O          5.29711        3.14338        0.20301
O          5.63383        0.65812        0.03228
C          4.97424        1.98740       -2.13628
H          2.98434       -0.79298        1.74064
H          4.24334       -0.89184        0.73231
H          1.49884       -0.19931       -0.04442
H          2.82449       -0.40904       -1.16819
H          2.89705        1.83221        1.26965
H          4.40864        2.86405       -2.46994
H          4.59289        1.06975       -2.59815
H          6.04686        2.10765       -2.33303
