52

O          4.68155       -0.32896        2.50226
Sb         4.59509       -0.70998        0.44802
C          4.44112       -1.01579       -1.75631
C          5.15551       -0.21886       -2.65971
C          5.19939       -0.52998       -4.02336
C          4.51502       -1.65115       -4.53644
C          3.74845       -2.41406       -3.63018
C          3.71211       -2.09554       -2.27010
Si         4.84627       -2.30613       -6.25529
C          6.15948       -3.66701       -5.97926
C          6.73692       -4.36825       -7.21326
C          7.75665       -5.43122       -6.83189
C          8.38936       -6.27969       -7.99266
C          9.14848       -5.56854       -9.17526
C         10.42090       -4.66153       -8.91943
C         11.66920       -5.30502       -8.20789
C         12.99437       -4.45971       -8.33686
F         13.46749       -4.47533       -9.59595
F         12.79498       -3.18385       -7.96038
F         13.92570       -5.00602       -7.53017
F         11.41357       -5.44576       -6.88791
F         11.92577       -6.52710       -8.74526
F         10.82334       -4.25734      -10.16126
F         10.03799       -3.56343       -8.22349
F          9.51958       -6.54891      -10.04347
F          8.25902       -4.75896       -9.82126
F          9.24985       -7.19162       -7.45734
F          7.37270       -6.96821       -8.59670
F          8.80026       -4.88389       -6.12418
F          7.17916       -6.37538       -6.01196
C          3.31433       -3.07866       -7.05793
C          5.54209       -0.98690       -7.42220
O          3.05397        0.70115        0.33033
H          3.92248       -0.80565        2.87513
H          5.89219       -1.92771        0.54429
H          3.34004       -1.93980        0.72397
H          5.74539        0.61320        0.24451
H          5.70706        0.65139       -2.28691
H          5.79142        0.10151       -4.69443
H          3.18707       -3.28494       -3.98681
H          3.11976       -2.71232       -1.58434
H          5.70332       -4.40476       -5.30096
H          6.97077       -3.19535       -5.40309
H          7.23350       -3.64660       -7.87700
H          5.95268       -4.86596       -7.80368
H          2.86270       -3.84311       -6.41014
H          3.55623       -3.55364       -8.02069
H          2.55029       -2.31103       -7.24684
H          6.47088       -0.54660       -7.03279
H          4.81882       -0.17031       -7.55947
H          5.76009       -1.40734       -8.41541
H          3.17471        1.21752        1.14417
