44

N          1.83203       -2.84170        3.99423
C          2.91260       -2.35841        3.11158
C          3.40807       -0.98318        3.55264
C          4.52510       -0.42295        2.65809
C          5.01025        0.96319        3.05084
Sb         6.55745        1.80383        1.64850
C          8.19742        2.48457        0.18861
C          9.38211        2.86175        0.83875
C         10.47615        3.39860        0.15507
C         10.40078        3.58396       -1.22988
C          9.24050        3.21226       -1.90392
C          8.14732        2.65101       -1.21229
C          6.99501        2.24342       -2.10205
O          6.79361        2.77175       -3.18664
O          6.21346        1.21789       -1.71360
C          6.66328        3.74101        2.83722
C          7.55467        3.75770        4.07179
C          7.36240        5.03130        4.90054
S          8.51569        5.23359        6.32722
H          1.45913       -3.72525        3.64194
H          1.05499       -2.17753        3.96529
H          2.61557       -2.30491        2.04469
H          3.74118       -3.08335        3.17095
H          3.75067       -1.04272        4.59901
H          2.55687       -0.27703        3.54695
H          4.16888       -0.40370        1.61206
H          5.37664       -1.12729        2.66243
H          5.46815        0.96356        4.05362
H          4.18538        1.69450        3.04115
H          6.41976        0.27583        0.59003
H          7.89929        1.06618        2.60816
H          5.30246        2.58084        0.63215
H          9.45650        2.71217        1.92155
H         11.38329        3.67532        0.69951
H         11.24293        4.00844       -1.78061
H          9.14953        3.34166       -2.98406
H          6.43179        0.86790       -0.79622
H          5.60692        3.91265        3.10343
H          6.96030        4.51588        2.11408
H          8.61555        3.67667        3.78921
H          7.34756        2.88168        4.71282
H          6.33004        5.10772        5.27036
H          7.55726        5.92278        4.28560
H          8.24297        4.04273        6.91105
