41

C          1.17014        0.17096       -0.59345
C          2.69966        0.14849       -0.51819
C          3.21774        1.13260        0.53703
C          4.74486        1.38504        0.62185
S          5.64272       -0.13434        1.18570
O          5.26926       -1.30898        0.41598
O          7.03165        0.13797        1.51164
C          4.91567       -0.57593        2.92081
F          4.98839        0.44320        3.81223
F          3.62480       -0.98480        2.86762
F          5.64805       -1.60089        3.40800
C          5.28922        1.72242       -0.84681
O          4.70130        2.71373       -1.34933
O          6.21358        1.02100       -1.31027
C          4.96613        2.60574        1.56291
C          6.36284        3.03391        2.05929
C          7.43754        3.38352        1.01634
C          7.13619        4.62313        0.12340
N          7.09657        4.35451       -1.30971
C          8.24512        3.90972       -1.96033
N          9.46248        4.32691       -1.77347
N          7.97539        2.96325       -2.94347
H          0.79967       -0.52257       -1.36205
H          0.79723        1.17624       -0.84376
H          0.71494       -0.12248        0.36561
H          3.12104        0.42145       -1.49724
H          3.04971       -0.86858       -0.29917
H          2.82066        0.86797        1.53086
H          2.81248        2.12860        0.29536
H          4.32203        2.47975        2.44821
H          4.52261        3.42601        0.97552
H          6.77119        2.25849        2.72108
H          6.18977        3.91846        2.69990
H          7.61921        2.51530        0.36893
H          8.38079        3.54729        1.56046
H          7.87491        5.41734        0.32014
H          6.15660        5.05248        0.38587
H          6.24510        3.84438       -1.57975
H          9.46597        5.09936       -1.10048
H          7.31381        2.23436       -2.64283
H          8.83662        2.58733       -3.32906
