51

Br         0.66423       -0.71153        0.85087
Al         2.81133       -0.19320       -0.03359
C          3.63400        1.21382        1.24906
F          2.94095        2.41316        1.34163
F          3.79056        0.80598        2.56804
F          4.91981        1.59717        0.85837
C          3.96248       -1.83775       -0.00957
C          4.64227       -2.24955       -1.17523
C          5.43741       -3.39927       -1.20794
C          5.60117       -4.20603       -0.06343
C          4.93505       -3.79825        1.10957
C          4.13866       -2.64887        1.12961
Si         6.63617       -5.77034       -0.14269
C          8.42812       -5.37639       -0.65287
C          9.21181       -4.45716        0.29562
C         10.64628       -4.18423       -0.17303
C         11.45212       -3.28199        0.76601
C         12.88667       -3.03751        0.28792
C         13.71046       -2.14273        1.21818
C         15.14260       -1.90569        0.72870
C         15.96422       -1.01281        1.66117
C          6.63965       -6.65031        1.53520
C          5.93110       -6.94770       -1.45190
H          2.69517        0.44450       -1.51333
H          4.53945       -1.65609       -2.09018
H          5.93310       -3.67495       -2.14623
H          5.03292       -4.39123        2.02421
H          3.63154       -2.38150        2.06180
H          8.39467       -4.92244       -1.65944
H          8.96614       -6.33438       -0.77598
H          9.24619       -4.90197        1.30566
H          8.67516       -3.50015        0.40668
H         10.61493       -3.72846       -1.17859
H         11.17514       -5.14716       -0.29452
H         11.47524       -3.73154        1.77470
H         10.93290       -2.31448        0.87805
H         12.86112       -2.58670       -0.72003
H         13.40057       -4.00868        0.17063
H         13.74024       -2.59202        2.22686
H         13.20041       -1.17049        1.33621
H         15.11007       -1.45638       -0.27838
H         15.64907       -2.87885        0.60892
H         15.50009       -0.02119        1.77122
H         16.98610       -0.86263        1.28438
H         16.04050       -1.45279        2.66705
H          7.05464       -6.01312        2.32892
H          7.24307       -7.56922        1.49074
H          5.62030       -6.93259        1.83520
H          5.90511       -6.46264       -2.43843
H          4.90053       -7.23644       -1.20057
H          6.53302       -7.86464       -1.54043
