22

C          0.75505       -1.46999        0.69310
C          2.12397       -2.15712        0.72837
C          3.15364       -1.50745       -0.20551
C          4.54010       -2.13299       -0.07679
Ta         5.30521       -3.98302       -0.99156
F          4.69005       -5.77130       -1.12697
C          5.93921       -4.34284        1.16018
H          0.03453       -1.94672        1.37590
H          0.32413       -1.49762       -0.31981
H          0.83755       -0.41008        0.98368
H          2.01770       -3.22002        0.45426
H          2.51417       -2.14673        1.76139
H          3.17610       -0.42065        0.02415
H          2.80510       -1.60971       -1.24657
H          4.92912       -1.95719        0.94205
H          5.25162       -1.60811       -0.77423
H          7.08252       -3.77300       -0.99629
H          5.98461       -3.52851       -2.59532
H          3.95951       -3.35858       -2.06406
H          6.55694       -5.25836        1.22852
H          5.02227       -4.51129        1.76234
H          6.50657       -3.53743        1.65131
