101

N          0.86331       -2.49565        0.24658
C          1.89748       -1.42973        0.17120
C          2.98405       -1.60448        1.21015
P          4.20483       -0.08418        1.21861
C          5.33119        1.49056        1.17959
C          4.72917        2.74248        0.99995
C          5.48826        3.90806        0.88839
C          6.89917        3.86962        0.95497
C          7.50166        2.60832        1.13153
C          6.72823        1.44516        1.24056
Si         7.87389        5.46582        0.84463
C          7.30726        6.60315        2.26541
C          7.82449        8.04851        2.27570
C          7.27688        8.87477        3.44655
C          7.73040       10.33753        3.45606
C          7.15802       11.14039        4.62847
C          7.57280       12.61430        4.63990
C          6.98805       13.40541        5.81451
C          7.39634       14.88029        5.81801
C          9.73667        5.14874        0.98766
C          7.54153        6.33763       -0.80876
C          4.96906       -0.70494        2.91069
C          5.68186       -1.90766        2.99730
C          6.14826       -2.39793        4.22183
C          5.94068       -1.68260        5.42009
C          5.24391       -0.45733        5.32575
C          4.76498        0.00955        4.09898
Si         6.47667       -2.34475        7.08639
C          7.75425       -3.74993        6.88502
C          9.11214       -3.31344        6.31953
C         10.08692       -4.47168        6.19563
C         11.47990       -4.17031        5.53260
C         12.43883       -3.08332        6.15192
C         13.01980       -3.23115        7.61745
C         13.86276       -4.51565        7.96342
C         14.73873       -4.37793        9.26734
F         14.00427       -3.92694       10.30159
F         15.22401       -5.59567        9.58580
F         15.77938       -3.54896        9.07568
F         13.02781       -5.56391        8.15286
F         14.71522       -4.80309        6.94577
F         13.83751       -2.15030        7.78787
F         12.00025       -3.12944        8.50562
F         13.50347       -2.98177        5.31030
F         11.78718       -1.88613        6.14558
F         12.19319       -5.33228        5.45804
F         11.24052       -3.74245        4.25966
F         10.34100       -5.04318        7.42472
F          9.55414       -5.46948        5.41001
C          7.24145       -0.97655        8.15184
C          5.02022       -3.09721        8.03541
H          0.05105       -2.22622       -0.31577
H          0.52853       -2.54727        1.21197
H          1.46820       -0.41282        0.28598
H          2.33796       -1.46675       -0.83926
H          3.54146       -2.54005        1.04077
H          2.53636       -1.65083        2.21947
H          5.26184       -0.85194        0.49666
H          3.62691        0.41459       -0.06168
H          3.18847        0.71077        1.98539
H          3.63463        2.78875        0.94137
H          4.97478        4.86648        0.74555
H          8.59228        2.53002        1.18900
H          7.22212        0.47659        1.37526
H          7.57710        6.09952        3.21041
H          6.20316        6.60764        2.24789
H          7.55367        8.54964        1.32985
H          8.92831        8.05763        2.31513
H          7.57092        8.39300        4.39568
H          6.17342        8.83791        3.42129
H          7.43356       10.81720        2.50631
H          8.83370       10.38143        3.48571
H          7.46791       10.66775        5.57729
H          6.05574       11.07504        4.60634
H          7.26181       13.08872        3.69201
H          8.67484       12.68564        4.66583
H          7.30233       12.93271        6.76051
H          5.88783       13.32731        5.78946
H          8.48991       14.98944        5.87696
H          6.96114       15.42035        6.67094
H          7.06471       15.38601        4.89853
H          9.98791        4.65685        1.93818
H         10.30186        6.09119        0.93538
H         10.09176        4.50197        0.17245
H          6.46887        6.54351       -0.93627
H          7.85351        5.69605       -1.64547
H          8.08345        7.29164       -0.89083
H          5.86718       -2.47531        2.07813
H          6.67532       -3.35825        4.24100
H          5.06973        0.14157        6.22690
H          4.21312        0.95553        4.05267
H          7.31168       -4.52755        6.24369
H          7.89431       -4.21035        7.87635
H          9.57546       -2.55322        6.96360
H          8.99841       -2.86363        5.32183
H          8.10840       -0.51564        7.65771
H          7.56591       -1.36370        9.12947
H          6.51201       -0.17499        8.33685
H          4.57954       -3.93274        7.47312
H          4.22893       -2.34866        8.18486
H          5.32790       -3.47118        9.02362
