33

C          0.89700        0.09902        0.13736
C          2.42935        0.08346        0.10832
C          3.01443       -0.42971       -1.21185
C          4.54472       -0.44922       -1.26001
C          5.12503       -0.96004       -2.58748
N          6.53033       -0.95350       -2.60230
C          7.00741       -1.44306       -3.83032
C          8.54179       -1.47094       -3.89941
C          9.10130       -1.98861       -5.22749
C         10.63198       -2.01898       -5.29877
C         11.17725       -2.53873       -6.63374
H          0.50396        0.47233        1.09607
H          0.48728       -0.91140       -0.01885
H          0.49121        0.74004       -0.66102
H          2.80597       -0.53906        0.93898
H          2.81042        1.10144        0.30261
H          2.63270        0.19362       -2.04150
H          2.63102       -1.44891       -1.40398
H          4.94259       -1.08137       -0.44616
H          4.94256        0.56575       -1.08111
H          4.65044       -0.33341       -3.42113
H          4.66751       -1.99336       -2.77479
H          6.64417       -0.84679       -4.73885
H          6.64344       -2.50077       -4.07728
H          8.91095       -2.09244       -3.06415
H          8.91086       -0.44792       -3.70543
H          8.71391       -1.36409       -6.05361
H          8.71131       -3.00620       -5.41482
H         11.02121       -2.64329       -4.47537
H         11.02358       -1.00336       -5.11310
H         10.83171       -3.56585       -6.83055
H         12.27822       -2.54760       -6.65721
H         10.83160       -1.91465       -7.47295
