40

C          0.75635       -0.66219       -0.64001
C          2.21717       -1.12727       -0.53644
C          3.15666       -0.51906       -1.58646
Al         5.07711       -1.18136       -1.56315
C          5.98979       -0.49504        0.14856
C          6.88959       -1.31959        0.86110
C          7.48759       -0.91815        2.06240
C          7.20459        0.33804        2.61434
C          6.31848        1.17345        1.93609
C          5.72752        0.75955        0.72821
C          5.97431        2.52487        2.49431
F          6.60422        2.79943        3.67521
F          6.30501        3.54259        1.63936
F          4.63383        2.66321        2.73480
C          8.41746       -1.82218        2.82062
F          8.74417       -2.95414        2.14580
F          9.60124       -1.20396        3.14067
F          7.88454       -2.22809        4.02090
C          6.00396       -0.58148       -3.27123
C          5.92497        0.90379       -3.62550
C          6.25673        1.28139       -5.07787
S          7.94937        0.86065       -5.65507
H          0.10996       -1.12465        0.12526
H          0.33894       -0.91063       -1.62895
H          0.68588        0.43118       -0.52400
H          2.24721       -2.22851       -0.61229
H          2.59119       -0.89610        0.47672
H          3.12722        0.58574       -1.49790
H          2.75051       -0.73200       -2.59566
H          5.17096       -2.82055       -1.44499
H          7.11816       -2.31386        0.46889
H          7.66118        0.65271        3.55194
H          5.02859        1.44432        0.23767
H          5.49159       -1.16334       -4.06400
H          7.05371       -0.91793       -3.30104
H          6.57291        1.49450       -2.95267
H          4.89961        1.28378       -3.45318
H          6.08559        2.35220       -5.27068
H          5.61164        0.71431       -5.76746
H          8.61205        1.59370       -4.72844
