12

I          1.07049       -0.39222        0.22853
B          3.16353        0.29454       -0.43936
C          3.91469        1.12994        0.71089
O          3.21313        2.43270        0.92776
C          3.75185        3.25962        1.80137
F          5.02831        3.68261        1.47876
F          2.98744        4.38188        1.88935
F          3.86215        2.75591        3.07946
I          4.54203       -1.52204       -0.83150
H          3.02207        0.85224       -1.49618
H          4.94242        1.37194        0.39796
H          3.94947        0.61229        1.68008
