22

N          2.93180        0.29407       -1.40056
C          2.61841        0.11113        0.02476
C          3.11085       -1.24722        0.53276
C          4.63714       -1.42081        0.59046
C          5.05013       -2.81533        1.07246
Ga         6.99711       -3.13089        1.40626
S          7.99548       -2.60502       -0.80305
O          7.41148       -3.51630       -1.79354
O          8.17116       -1.21111       -1.20566
F          9.59391       -3.17100       -0.66555
Br         7.85757       -1.48148        2.94052
H          2.57060        1.18553       -1.74110
H          2.48191       -0.43818       -1.95334
H          1.53484        0.20512        0.25179
H          3.12886        0.91502        0.58159
H          2.67463       -2.04125       -0.10300
H          2.69202       -1.40956        1.54130
H          5.05544       -0.65289        1.26350
H          5.06507       -1.21729       -0.40253
H          4.72276       -3.58402        0.35229
H          4.55331       -3.04770        2.03185
H          7.61673       -4.53485        1.73221
