24

N          1.06331       -0.66236       -0.07694
C          2.51789       -0.39670       -0.04909
C          2.93707        0.55275       -1.17377
C          4.43848        0.88203       -1.18306
Al         5.02247        1.96106       -2.77767
S          7.46702        1.71897       -2.61505
O          8.11606        2.39833       -1.49206
O          7.94360        0.37090       -2.93625
F          7.98712        2.63706       -3.96359
C          4.55496        3.91863       -2.76802
N          4.32322        4.50065       -1.42444
H          0.82288       -1.37739        0.61220
H          0.81598       -1.05605       -0.98800
H          3.13336       -1.31596       -0.12437
H          2.75703        0.06467        0.92346
H          2.32887        1.47072       -1.09054
H          2.64815        0.09091       -2.13754
H          5.01681       -0.05946       -1.19431
H          4.71591        1.39107       -0.24286
H          4.73101        1.24814       -4.20444
H          3.68100        4.02782       -3.44802
H          5.37484        4.47540       -3.25440
H          3.77534        3.86360       -0.84607
H          3.78982        5.37110       -1.47718
