30

C          0.94049       -0.40837        0.12290
C          2.46121       -0.28345       -0.00349
C          2.93114        1.09991       -0.46595
C          4.45232        1.21993       -0.60855
C          4.94708        2.60015       -1.07125
C          6.47046        2.72153       -1.21998
Al         7.17380        4.55990       -1.67796
C          6.89245        5.05861       -3.65110
O          5.44978        4.93067       -4.04031
C          5.12091        5.28112       -5.26520
F          5.76524        4.57421       -6.26208
F          3.78476        5.07507       -5.45099
F          5.35409        6.60818       -5.56944
F          8.90123        4.58378       -1.53355
H          0.63722       -1.41307        0.45406
H          0.44533       -0.21042       -0.84008
H          0.54231        0.31652        0.84964
H          2.83410       -1.04455       -0.71045
H          2.93186       -0.51875        0.96671
H          2.56882        1.86334        0.24635
H          2.45357        1.34132       -1.43261
H          4.81142        0.45485       -1.32107
H          4.92981        0.97619        0.35835
H          4.58248        3.36018       -0.35519
H          4.45569        2.84529       -2.03017
H          6.82548        1.98124       -1.96314
H          6.94933        2.42621       -0.26503
H          6.50398        5.70527       -0.71201
H          7.46255        4.41407       -4.34125
H          7.18411        6.10225       -3.85725
