47

N          6.41224       -0.22994       -3.10891
C          5.61139        0.86360       -3.50258
N          4.39648        0.78026       -3.96380
N          6.25965        2.05517       -3.40197
C          5.71369        3.29906       -3.89471
C          6.49990        4.50152       -3.35678
C          6.27965        4.83057       -1.86632
C          6.97522        3.97415       -0.78281
C          8.51143        4.09497       -0.72074
S          9.05595        3.50529        0.97668
O         10.38764        4.05861        1.25288
O          8.00258        3.68235        1.97381
C          9.33955        1.59050        0.97643
C          9.58690        1.05347        2.43900
C         10.20820       -0.39400        2.48964
F          9.50638       -1.25434        1.72646
F         11.48930       -0.39759        2.08467
F         10.17278       -0.83884        3.76731
F         10.43718        1.86553        3.11704
F          8.40597        0.99779        3.10487
F          8.23682        0.97247        0.49990
F         10.41114        1.28828        0.21601
C          9.28105        3.17570       -1.83488
O          8.70483        2.08034       -2.08289
O         10.31669        3.66420       -2.30680
C          9.06489        5.53359       -0.78638
C          8.56536        6.55328        0.27257
C          9.65950        7.48069        0.78737
O          9.59798        8.69382        0.74542
O         10.73806        6.87061        1.33790
H          5.87991       -0.97419       -2.66990
H          7.23417        0.02650       -2.56131
H          4.10517       -0.20077       -3.99177
H          7.20794        2.06874       -2.99296
H          4.65182        3.37145       -3.60234
H          5.72598        3.31993       -5.00196
H          6.17766        5.37928       -3.93987
H          7.57167        4.37209       -3.57951
H          5.19699        4.76620       -1.66400
H          6.54385        5.88728       -1.70225
H          6.72191        2.91471       -0.91827
H          6.55279        4.28313        0.18486
H          8.81106        5.89609       -1.79183
H         10.15732        5.45555       -0.79622
H          8.14538        6.04064        1.15322
H          7.76796        7.19063       -0.12748
H         10.63644        5.88699        1.30716
