23

N          1.22619       -0.12052        0.05093
In         3.14203        0.51409       -0.73877
C          4.32619        1.54945        0.94572
O          3.47947        1.67139        2.17394
C          4.07157        2.08577        3.27414
F          4.65633        3.33509        3.18567
F          3.15290        2.16395        4.28024
F          5.07884        1.26011        3.73523
C          4.19897       -1.43701       -1.15322
C          5.03416       -1.97589        0.01251
C          5.69180       -3.34274       -0.24545
H          0.85507        0.61242        0.66489
H          1.41962       -0.89355        0.69819
H          2.93003        1.64416       -2.09547
H          4.65478        2.56786        0.68877
H          5.21174        0.95971        1.23009
H          4.82944       -1.34450       -2.05447
H          3.40195       -2.15932       -1.40457
H          4.40931       -2.05542        0.91993
H          5.82730       -1.25345        0.27393
H          4.93069       -4.11334       -0.44680
H          6.29847       -3.68456        0.61133
H          6.35082       -3.29921       -1.12748
