62

C          9.08633       -2.31844       -5.22817
C          8.57059       -1.72022       -3.91730
C          9.14114       -0.32997       -3.62044
C          8.65092        0.26925       -2.29915
C          9.21048        1.66570       -2.01187
C          8.75173        2.25057       -0.67279
C          9.28024        3.66547       -0.40843
C          8.83417        4.25389        0.93847
Si         9.31930        6.07607        1.21869
C          8.62713        7.12076       -0.17869
C          7.23941        7.34887       -0.28376
C          6.70085        8.06433       -1.35749
C          7.50050        8.59531       -2.39311
C          8.88636        8.36095       -2.27231
C          9.43935        7.65004       -1.20144
Al         6.64165        9.56280       -3.95164
C          6.91844       11.63983       -3.76609
C          8.33029       12.25338       -3.69257
F          9.06922       11.89739       -4.77930
F          8.34330       13.62072       -3.64372
F          8.99327       11.81795       -2.59034
F          6.31500       12.28896       -4.86311
F          6.25718       12.14926       -2.63579
C          7.37423        8.99563       -5.74801
C          6.90161        7.61444       -6.17771
N          7.40660        7.22975       -7.52612
C          8.59654        6.61142        2.88774
C         11.20748        6.22466        1.30099
H          8.65809       -3.31314       -5.41808
H         10.18171       -2.42378       -5.21220
H          8.83114       -1.67627       -6.08446
H          8.81411       -2.39809       -3.08130
H          7.46943       -1.66017       -3.94691
H          8.88354        0.35294       -4.44888
H         10.24430       -0.38548       -3.60790
H          8.91948       -0.41034       -1.47033
H          7.54750        0.31502       -2.30694
H          8.91729        2.35034       -2.82636
H         10.31427        1.62720       -2.03284
H          9.06671        1.58064        0.14785
H          7.64787        2.27022       -0.64143
H          8.94871        4.32931       -1.22437
H         10.38318        3.65125       -0.46244
H          9.22291        3.64060        1.77149
H          7.73304        4.20119        1.01302
H          6.56276        6.96024        0.48627
H          5.61667        8.21434       -1.39648
H          9.56683        8.74466       -3.04008
H         10.52381        7.50455       -1.16514
H          5.02079        9.39817       -3.84625
H          8.47732        9.03338       -5.77337
H          7.02476        9.74404       -6.48575
H          5.79471        7.57834       -6.12686
H          7.26981        6.85048       -5.47115
H          7.17934        7.98861       -8.17384
H          6.89857        6.40825       -7.86757
H          7.49796        6.56783        2.87699
H          8.88355        7.64591        3.12454
H          8.95152        5.96257        3.70257
H         11.68700        5.88541        0.37205
H         11.60822        5.61742        2.12627
H         11.51154        7.26764        1.46984
