12

O          1.31396       -0.25505        0.11433
C          2.53520       -0.01098        0.18070
O          3.34276        0.00534        1.14230
C          3.22729        0.32909       -1.22487
S          2.88461        2.13136       -1.67922
O          2.72531        3.04645       -0.57168
O          3.76364        2.51321       -2.77759
F          1.40218        2.00375       -2.37052
N          4.62817        0.10623       -1.16343
H          2.71821       -0.18539       -2.05291
H          4.90165        0.26833       -0.18449
H          5.17704        0.63885       -1.83653
