29

C          1.02323       -0.15248        0.22485
C          2.45160        0.20440        0.66002
Ga         3.19242        1.86036       -0.29808
C          2.03527        3.50693        0.17236
C          2.55130        4.86866       -0.28585
S          2.66608        4.96699       -2.11807
C          3.03121        6.73751       -2.28544
C          5.14479        2.23089        0.23886
C          5.37607        2.33479        1.73312
N          6.79554        2.65396        2.08142
H          0.63299       -1.08935        0.67061
H          0.96325       -0.26740       -0.87032
H          0.31202        0.64692        0.49159
H          3.12966       -0.63746        0.42871
H          2.49032        0.33160        1.75711
H          3.12811        1.56127       -1.88854
H          1.95794        3.53908        1.27440
H          1.00902        3.35759       -0.20494
H          3.56078        5.06094        0.11563
H          1.90313        5.71446        0.01866
H          3.11079        6.95594       -3.35906
H          3.98521        7.00010       -1.80408
H          2.22989        7.35956       -1.85702
H          5.48574        3.15381       -0.26145
H          5.75523        1.40474       -0.17323
H          5.04087        1.39616        2.21778
H          4.75625        3.14316        2.15984
H          7.39157        2.02789        1.53295
H          6.97645        2.42177        3.06336
