45

C          1.63648        5.52883        2.03387
C          3.10693        5.18251        2.28026
C          3.45418        3.72564        1.95868
C          4.91559        3.35108        2.24593
C          5.26846        1.88755        1.96302
Ga         7.13557        1.30975        2.54745
C          8.24587        0.63673        0.96392
C          9.56034        1.06409        0.69043
C         10.32865        0.50341       -0.33826
C          9.80620       -0.51372       -1.14601
C          8.50475       -0.95066       -0.89947
C          7.74451       -0.38185        0.13576
C          7.89532       -2.03326       -1.74506
F          8.78571       -2.61133       -2.60425
F          7.37020       -3.04679       -0.99408
F          6.86443       -1.56897       -2.51941
C         11.73907        0.95076       -0.59843
F         12.13738        1.97518        0.20026
F         12.64701       -0.06169       -0.41225
F         11.92191        1.37221       -1.89169
C          8.17368        2.79154        3.53480
C          7.75139        2.86886        5.00357
C          8.47804        3.86070        5.91094
O          8.23336        4.03552        7.08844
O          9.46860        4.57711        5.30245
H          1.41650        6.58005        2.27290
H          0.97520        4.90141        2.65121
H          1.35942        5.35960        0.98202
H          3.36113        5.38838        3.33425
H          3.74953        5.84988        1.68068
H          3.22657        3.51773        0.89738
H          2.79598        3.05755        2.54350
H          5.12578        3.59238        3.30413
H          5.57479        4.01771        1.66042
H          5.13772        1.67628        0.88708
H          4.55402        1.23315        2.49135
H          7.05265        0.06453        3.56761
H         10.01036        1.85033        1.30063
H         10.40231       -0.95709       -1.94248
H          6.73336       -0.76409        0.30507
H          8.01296        3.75334        3.01717
H          9.24294        2.52485        3.45047
H          7.85121        1.88282        5.48752
H          6.68008        3.11033        5.10158
H          9.47084        4.26233        4.36859
