37

C          0.76349       -2.23743        5.57846
O          2.08480       -2.73057        5.58060
C          2.88135       -2.12641        6.59788
C          4.33081       -2.54830        6.45560
O          4.93332       -1.84493        5.39579
C          6.34631       -2.17862        5.24749
C          7.00295       -1.35606        4.17316
Al         8.96793       -1.76885        3.89609
C          9.76420       -0.60423        2.44274
C          9.47569        0.90645        2.43852
C         10.17387        1.61408        3.61041
C          9.93755        3.10382        3.64993
C         10.60932        3.84138        4.84858
F         10.14379        3.37968        6.02713
F         11.95347        3.66749        4.82830
F         10.36979        5.17568        4.80251
F         10.41911        3.73118        2.51137
F          8.59531        3.41205        3.72320
Br        10.07859       -1.32307        6.02387
H          0.22219       -2.75450        4.77462
H          0.73342       -1.14703        5.38675
H          0.24640       -2.43247        6.54032
H          2.50033       -2.42724        7.59654
H          2.81784       -1.02307        6.52384
H          4.37904       -3.64709        6.29584
H          4.85041       -2.33748        7.41635
H          6.41719       -3.26222        5.02325
H          6.83857       -2.01256        6.22629
H          6.88562       -0.28408        4.40919
H          6.49104       -1.52966        3.20894
H          9.23814       -3.34165        3.56273
H          9.37010       -1.03468        1.50224
H         10.85634       -0.77062        2.39556
H          8.39084        1.08398        2.51571
H          9.80081        1.38733        1.49795
H         11.26218        1.45412        3.55507
H          9.84981        1.18083        4.57011
