34

C          0.38274       -0.97966        0.99479
C          1.75835       -1.14725        0.34433
C          2.82469       -1.68467        1.30420
C          4.21311       -1.84751        0.66434
C          5.29375       -2.37281        1.60352
Nb         7.30316       -2.97158        1.02042
C          9.13312       -1.66158        0.78085
F          9.21210       -0.71512        1.83093
F         10.33631       -2.38862        0.90611
F          9.35828       -0.89263       -0.33910
C          8.38517       -3.39745        2.93306
C          7.53145       -4.40955        3.70236
C          8.13051       -4.99904        4.98681
O          7.58300       -5.82817        5.68528
O          9.35711       -4.51416        5.31576
H         -0.36132       -0.58466        0.28682
H          0.43047       -0.28785        1.84966
H          0.00442       -1.94159        1.37380
H          2.09465       -0.17822       -0.06256
H          1.67681       -1.82549       -0.52238
H          2.49388       -2.65806        1.70925
H          2.90676       -1.00864        2.17447
H          4.54297       -0.87675        0.25915
H          4.12042       -2.51735       -0.20901
H          4.96921       -3.34134        2.06128
H          5.45425       -1.66885        2.44645
H          7.94924       -3.01422       -0.60842
H          7.02047       -4.54710        0.17674
H          7.00099       -1.45276        0.20831
H          8.56254       -2.46823        3.49727
H          9.35677       -3.81890        2.62204
H          7.26861       -5.28485        3.08127
H          6.56317       -3.97971        4.01060
H          9.57998       -3.87240        4.59884
