68

C          0.52282       -0.76565       -0.64814
C          1.89996       -0.37036       -0.10514
C          2.95010       -0.30809       -1.23329
C          4.45087       -0.30185       -0.88014
C          5.01277        1.10129       -0.76401
C          4.46007        2.17588        0.27857
C          4.54399        1.86965        1.81210
F          5.81991        1.71819        2.22012
F          4.02125        2.92224        2.49887
F          3.84575        0.77563        2.15865
F          5.16602        3.34249        0.11213
F          3.15173        2.46856        0.01160
F          6.37128        1.14108       -0.54456
F          4.79517        1.77782       -1.96608
C          4.88042       -1.35368        0.07796
C          4.17544       -2.58554        0.09249
C          4.53819       -3.63602        0.92522
C          5.62545       -3.54360        1.81923
C          6.35029       -2.33772        1.77929
C          6.00687       -1.28748        0.93182
Si         6.06128       -4.94943        2.97262
C          4.46661       -5.86616        3.46356
C          3.38572       -4.97856        4.10130
C          2.02941       -5.67429        4.26854
C          0.93447       -4.76286        4.83270
C         -0.44188       -5.43131        4.91110
C         -1.55017       -4.51228        5.43524
C         -2.93156       -5.17471        5.47915
C         -4.03914       -4.24615        5.98552
C          7.22208       -6.19470        2.13971
C          6.91194       -4.29188        4.53376
C          5.32529       -0.99176       -2.49235
O          4.48240       -1.53169       -3.19710
O          6.52730       -0.79414       -2.46536
H         -0.23992       -0.78100        0.14518
H          0.55096       -1.76598       -1.10725
H          0.18118       -0.06291       -1.42442
H          2.20872       -1.09702        0.66109
H          1.81699        0.59589        0.40941
H          2.73838        0.56162       -1.87239
H          2.80828       -1.16728       -1.90619
H          3.33844       -2.72815       -0.58983
H          3.94550       -4.55457        0.87496
H          7.21861       -2.19988        2.43023
H          6.63473       -0.40220        0.93717
H          4.72885       -6.70228        4.13564
H          4.06426       -6.33819        2.54936
H          3.24415       -4.07449        3.48608
H          3.73385       -4.61712        5.08483
H          2.14349       -6.56365        4.91460
H          1.70653       -6.05714        3.28376
H          0.86272       -3.85803        4.20423
H          1.22955       -4.40849        5.83648
H         -0.37859       -6.32979        5.55121
H         -0.72129       -5.79749        3.90714
H         -1.60115       -3.60862        4.80240
H         -1.28432       -4.15504        6.44634
H         -2.88307       -6.07347        6.11799
H         -3.18954       -5.53789        4.46965
H         -3.82579       -3.88864        7.00452
H         -5.01488       -4.75243        6.00827
H         -4.13975       -3.35927        5.34190
H          6.76246       -6.59515        1.22502
H          7.46176       -7.03868        2.80407
H          8.16334       -5.70653        1.84963
H          6.27885       -3.55617        5.04887
H          7.86470       -3.79995        4.29170
H          7.12763       -5.11263        5.23376
