33

C          2.58542       -0.30903        0.30528
C          1.09639       -0.20330        0.07737
C          0.49591       -0.74560       -1.06626
C         -0.88320       -0.63076       -1.27644
C         -1.73557        0.01863       -0.35978
C         -1.11016        0.55698        0.78557
C          0.26721        0.45270        1.00068
Al        -3.69334        0.09712       -0.77766
C         -4.71186       -1.60170       -0.08091
C         -4.58767       -2.22297        1.33418
C         -5.09841       -1.35109        2.52261
F         -4.43213       -0.18216        2.58487
F         -6.41692       -1.09442        2.43323
F         -4.88826       -2.00866        3.69549
F         -5.26723       -3.41914        1.42479
F         -3.26824       -2.48806        1.58615
F         -6.08712       -1.50409       -0.32487
F         -4.26710       -2.64562       -0.91932
C         -4.59959        1.81833        0.01701
C         -4.72695        3.02125       -0.94558
F         -3.50904        3.35643       -1.45004
F         -5.54045        2.72876       -1.98917
F         -5.23156        4.14355       -0.35284
F         -5.90440        1.59015        0.47281
F         -3.90832        2.33464        1.12761
H          3.05487       -0.97129       -0.43566
H          2.81370       -0.70541        1.30653
H          3.07639        0.67484        0.23003
H          1.11869       -1.26322       -1.80329
H         -1.30685       -1.06300       -2.18879
H         -1.71209        1.07979        1.53321
H          0.70931        0.88842        1.90276
H         -3.99456        0.04048       -2.36277
