103

C          2.71957        2.45865       -1.37990
C          3.96925        2.70866       -2.22743
C          5.02317        1.60628       -2.08616
C          6.28578        1.84463       -2.91963
C          7.31870        0.71967       -2.80003
C          8.59689        0.97156       -3.60692
C          9.63565       -0.16168       -3.52320
C          9.22001       -1.46328       -4.22655
Si        10.44906       -2.91798       -4.14338
C          9.72001       -4.35993       -5.10198
C         10.35995       -4.94582       -6.21242
C          9.75582       -5.98491       -6.93586
C          8.48937       -6.46771       -6.58893
C          7.85133       -5.89113       -5.48332
C          8.44978       -4.86604       -4.74676
As         7.33959       -7.81546       -7.72802
C          5.91178       -8.90412       -8.78701
C          6.09812       -9.45468      -10.05872
C          5.02858      -10.02622      -10.76239
C          3.73098      -10.07273      -10.21236
C          3.55675       -9.52557       -8.92273
C          4.62842       -8.95218       -8.23424
Si         2.29248      -10.84355      -11.14057
C          2.27469      -12.72937      -10.86279
C          1.14178      -13.50797      -11.54766
C          1.15643      -15.01279      -11.25126
C          0.02032      -15.78446      -11.92858
C          0.02411      -17.28486      -11.62183
C         -1.11930      -18.05352      -12.29010
C         -1.11747      -19.55347      -11.97993
C         -2.26667      -20.31205      -12.64719
C          0.64586      -10.12982      -10.52618
C          2.43546      -10.48795      -12.99796
C          8.68790       -9.42597       -7.65750
C          8.24294      -10.51755       -6.68438
C          8.90496      -10.50915       -5.31419
O          9.25632      -11.53988       -4.72856
N          9.07297       -9.27553       -4.75655
C         12.11600       -2.38918       -4.87279
C         10.70716       -3.38627       -2.32291
H          1.97680        3.25958       -1.50419
H          2.97086        2.39978       -0.31002
H          2.23638        1.50968       -1.65654
H          4.41676        3.67824       -1.94958
H          3.68254        2.80042       -3.28873
H          4.57482        0.63890       -2.37288
H          5.30231        1.50529       -1.02216
H          6.74729        2.80155       -2.61644
H          6.00417        1.96681       -3.98043
H          6.85346       -0.22689       -3.12143
H          7.58685        0.58220       -1.73670
H          9.05746        1.91086       -3.25303
H          8.33334        1.13890       -4.66617
H          9.85409       -0.36026       -2.45866
H         10.58095        0.20144       -3.95971
H          9.01952       -1.26303       -5.29379
H          8.26605       -1.83660       -3.81655
H         11.34517       -4.58405       -6.52405
H         10.27700       -6.40852       -7.80203
H          6.84879       -6.24820       -5.21212
H          7.91283       -4.44194       -3.88986
H          6.64595       -8.34558       -6.34048
H          6.26105       -6.61765       -7.75375
H          8.05365       -7.31421       -9.07977
H          7.08926       -9.42061      -10.52526
H          5.21108      -10.43317      -11.76300
H          2.56652       -9.53386       -8.45552
H          4.46790       -8.50930       -7.24287
H          2.23831      -12.89605       -9.77187
H          3.25328      -13.12594      -11.18531
H          1.19341      -13.36111      -12.64093
H          0.16441      -13.09815      -11.23708
H          1.10259      -15.16478      -10.15890
H          2.12704      -15.43444      -11.56652
H          0.07913      -15.63611      -13.02167
H         -0.94794      -15.35310      -11.61752
H         -0.02848      -17.43241      -10.52871
H          0.98898      -17.71906      -11.93821
H         -1.06769      -17.90839      -13.38394
H         -2.08437      -17.61898      -11.97385
H         -1.16627      -19.69649      -10.88714
H         -0.15448      -19.98736      -12.29843
H         -3.24248      -19.92315      -12.31915
H         -2.23799      -21.38450      -12.40820
H         -2.22500      -20.21327      -13.74247
H          0.47333      -10.36154       -9.46532
H         -0.20015      -10.53793      -11.09851
H          0.63027       -9.03600      -10.63423
H          3.37038      -10.88800      -13.41592
H          2.42836       -9.40414      -13.18199
H          1.59999      -10.93278      -13.55838
H          9.68043       -9.01974       -7.41607
H          8.71169       -9.80144       -8.68941
H          8.38129      -11.53202       -7.08258
H          7.15196      -10.39873       -6.49235
H          8.73566       -8.42674       -5.20364
H          9.45479       -9.22146       -3.82063
H         12.01627       -2.07463       -5.92146
H         12.84189       -3.21424       -4.83828
H         12.54229       -1.54769       -4.30719
H          9.76265       -3.71612       -1.86641
H         11.09157       -2.54112       -1.73237
H         11.42305       -4.21577       -2.23403
