35

C          1.12679        2.71042       -1.35757
O          2.50309        2.40160       -1.33849
C          2.87016        1.64485       -0.18916
C          4.37618        1.48087       -0.12616
O          4.97085        2.68567        0.29220
C          6.40486        2.56961        0.44314
C          7.00109        3.88389        0.89621
B          8.54919        3.83610        1.39979
S          9.78648        3.39718       -0.04583
O          9.28646        3.79944       -1.38181
O         11.17056        3.80981        0.29169
C          9.87160        1.57389       -0.10826
C          9.07444        5.26735        1.96784
O          8.28390        5.57696        3.20112
C          8.61520        6.66377        3.86707
F          8.52361        7.83476        3.14372
F          7.78134        6.80408        4.93697
F          9.89882        6.65956        4.37203
H          0.93468        3.29279       -2.26839
H          0.82974        3.31382       -0.47726
H          0.49749        1.79694       -1.37692
H          2.38925        0.64460       -0.22931
H          2.52300        2.15551        0.73046
H          4.75551        1.16529       -1.12132
H          4.60555        0.65784        0.58710
H          6.83470        2.25402       -0.52768
H          6.61161        1.76764        1.18307
H          6.40726        4.24249        1.75554
H          6.87745        4.62785        0.09107
H          8.77191        2.94269        2.21118
H          8.87755        1.16203       -0.31754
H         10.25493        1.20663        0.85011
H         10.56660        1.34407       -0.92594
H          8.90911        6.10790        1.27499
H         10.13468        5.24785        2.25244
