35

C          0.57865        0.00108       -1.03851
C          2.09275       -0.14899       -1.21772
C          2.67067       -1.39047       -0.53106
C          4.18201       -1.56712       -0.71471
C          4.74764       -2.80698        0.02425
C          6.21608       -3.10270       -0.11751
S          7.24517       -2.69147        1.13564
O          6.54106       -2.62703        2.43759
O          8.50734       -3.46984        1.05952
C          7.84903       -0.96497        0.97206
C          6.72095       -3.96691       -1.22848
C          6.96107       -3.35539       -2.63622
S          8.31330       -2.13510       -2.78966
C          9.72305       -3.09388       -2.15616
H          0.19131        0.90062       -1.54083
H          0.31095        0.07269        0.02726
H          0.04328       -0.86826       -1.45148
H          2.60110        0.74915       -0.82722
H          2.33314       -0.18539       -2.29441
H          2.15107       -2.28988       -0.91179
H          2.44044       -1.34812        0.54952
H          4.70746       -0.66790       -0.34949
H          4.41389       -1.63438       -1.79239
H          4.17000       -3.68986       -0.33242
H          4.50199       -2.69823        1.09490
H          6.98275       -0.29347        1.02782
H          8.34733       -0.86235        0.00046
H          8.54247       -0.75910        1.80018
H          5.98595       -4.78487       -1.41401
H          7.64739       -4.47031       -0.91306
H          6.07478       -2.79757       -2.97633
H          7.14535       -4.16293       -3.37042
H         10.60818       -2.45555       -2.27924
H          9.87005       -4.01642       -2.73773
H          9.58906       -3.32837       -1.09062
