25

C          1.00861       -2.59626        0.20555
C          2.53912       -2.55828        0.18237
C          3.07909       -1.29792        0.86497
C          4.59281       -1.04712        0.91297
C          5.29755       -0.90852       -0.50327
O          6.26908       -0.07919       -0.56132
O          4.85463       -1.60172       -1.43392
C          4.92914        0.11752        1.84815
C          4.44399        1.49358        1.30884
C          5.56116        2.53699        1.23398
O          5.47295        3.63339        1.77490
O          6.62796        2.16812        0.53370
Br         5.46633       -2.67301        1.78712
H          0.62341       -3.51250       -0.26624
H          0.57804       -1.73972       -0.33732
H          0.61535       -2.56213        1.23506
H          2.92177       -2.59061       -0.84547
H          2.94262       -3.44346        0.69755
H          2.70204       -1.26302        1.90372
H          2.64752       -0.41758        0.35291
H          6.01620        0.13894        1.98853
H          4.47869       -0.07222        2.83403
H          3.63748        1.90844        1.92514
H          4.05251        1.37949        0.28472
H          6.48222        1.20891        0.12000
