22

C          1.23446       -0.21300        0.30140
C          0.62004       -1.41084       -0.36359
C          0.91547       -2.79486        0.30065
C          2.41084       -3.07773        0.45895
C         -0.91234       -1.26199       -0.51203
C          2.56572        0.24615       -0.08627
C          2.87169        1.75027        0.04026
O          2.12817        2.68047       -0.18892
O          4.16792        2.00848        0.43376
H          0.94758       -0.06112        1.35280
H          1.04295       -1.47018       -1.39047
H          0.43979       -3.61906       -0.27494
H          0.43920       -2.80136        1.29909
H          2.92022       -3.07360       -0.51884
H          2.59903       -4.05608        0.93054
H          2.88226       -2.29645        1.07110
H         -1.37385       -1.13000        0.48137
H         -1.39230       -2.13836       -0.98845
H         -1.14206       -0.36041       -1.09521
H          2.73425        0.01296       -1.15815
H          3.53219       -0.23881        0.40939
H          4.54529        1.09830        0.59036
