21

C          1.09304       -0.08343        0.12274
C          2.62045       -0.01990        0.01874
C          3.12620        0.68837       -1.24098
C          4.65517        0.75105       -1.35215
N          5.08747        1.40808       -2.52143
C          6.47122        1.41620       -2.55459
C          7.12513        2.07468       -3.76363
O          6.61397        2.59985       -4.72278
O          8.52331        2.03465       -3.70156
H          0.75975       -0.59891        1.03782
H          0.65884       -0.61762       -0.73729
H          0.65349        0.92666        0.13070
H          3.03207       -1.04431        0.04772
H          3.02735        0.49052        0.90951
H          2.73659        1.72103       -1.27814
H          2.73702        0.18327       -2.14260
H          5.04587       -0.32017       -1.26341
H          5.04570        1.23053       -0.39004
H          6.97022        0.37353       -2.50775
H          6.98490        1.92732       -1.65206
H          8.73385        1.57980       -2.86370
