77

N          8.18453        3.31054       -4.21683
C          7.66497        2.64215       -2.98967
C          6.48270        1.73380       -3.28530
Ta         5.58929        0.51676       -1.69690
C          6.69769       -0.35678        0.01380
C          7.98644        0.09982        0.38035
C          8.68436       -0.41886        1.47080
C          8.12629       -1.41784        2.29962
C          6.83606       -1.87103        1.95717
C          6.15513       -1.36232        0.84531
Si         9.06022       -2.04549        3.79910
C          8.99962       -0.78161        5.22609
C          7.60037       -0.42170        5.74541
C          7.61290        0.62818        6.86372
C          6.22072        0.99262        7.38781
C          6.23995        2.04180        8.50399
C          4.84859        2.41748        9.02184
C          4.86754        3.46360       10.14090
C          3.47088        3.83482       10.64543
C          8.34115       -3.69412        4.40037
C         10.89292       -2.30467        3.38582
C          3.56133        0.83997       -0.94988
C          2.83340        2.04803       -1.54473
C          1.52540        2.42798       -0.82998
C          0.84955        3.65704       -1.43792
N         -0.40662        3.95809       -0.75320
C         -1.26178        4.99649       -1.06739
N         -2.45745        5.18746       -0.60129
N         -0.71586        5.96147       -1.91509
H          8.85373        4.03913       -3.95153
H          7.40441        3.79866       -4.66518
H          7.36748        3.35682       -2.20203
H          8.50278        2.05231       -2.57693
H          6.72070        1.04604       -4.11584
H          5.60798        2.33639       -3.61613
H          6.31257       -1.05403       -2.24188
H          4.66259       -0.15251       -3.13511
H          6.05186        2.09881       -0.83124
H          8.45626        0.90122       -0.19906
H          9.68220       -0.02272        1.69134
H          6.35257       -2.64476        2.56266
H          5.16446       -1.77646        0.62160
H          9.50454        0.13403        4.86957
H          9.62251       -1.16470        6.05543
H          7.09358       -1.33006        6.11653
H          6.98325       -0.05338        4.90877
H          8.11326        1.54042        6.49338
H          8.23448        0.26067        7.70041
H          5.71835        0.07990        7.75500
H          5.60290        1.36154        6.55084
H          6.74892        2.95120        8.13842
H          6.85332        1.66956        9.34420
H          4.33563        1.50851        9.38373
H          4.23749        2.79434        8.18294
H          5.38214        4.37011        9.77960
H          5.47556        3.08519       10.98044
H          2.85375        4.24955        9.83442
H          3.51418        4.58454       11.44842
H          2.94448        2.95269       11.04040
H          7.28707       -3.60149        4.69767
H          8.90251       -4.06770        5.26985
H          8.39700       -4.45489        3.60866
H         11.35591       -1.37270        3.03078
H         11.01687       -3.05726        2.59433
H         11.45425       -2.64128        4.27049
H          3.75434        1.01575        0.13046
H          2.94777       -0.07591       -1.03043
H          2.61638        1.85514       -2.60952
H          3.50575        2.92429       -1.51822
H          1.73039        2.62062        0.23619
H          0.82741        1.57196       -0.87008
H          0.68412        3.47498       -2.51965
H          1.52230        4.52585       -1.35033
H         -0.85092        3.17131       -0.29341
H         -2.69663        4.46988        0.08905
H         -0.10691        5.62244       -2.65345
H         -1.43209        6.60212       -2.24212
