28

N          2.02990        0.98639        0.77840
C          2.37123       -0.28647        0.08905
B          2.91978       -1.41087        1.14273
C          1.87527       -2.67291        1.22436
C          1.99526       -3.84285        2.26740
C          2.17889       -3.42814        3.77176
C          1.91581       -4.58207        4.81102
F          0.60828       -4.90025        4.89357
F          2.61013       -5.69691        4.51005
F          2.31008       -4.16433        6.03962
F          3.44878       -3.00422        3.97850
F          1.32034       -2.42280        4.10224
F          0.84643       -4.60591        2.20701
F          3.02912       -4.65866        1.93588
F          0.60423       -2.14615        1.46068
F          1.76688       -3.34822        0.00617
S          4.70833       -1.97820        0.60104
O          5.32942       -2.98101        1.47403
O          4.88229       -2.12173       -0.85048
C          5.77777       -0.41608        0.99831
F          5.37363        0.69644        0.32892
F          5.78007       -0.11406        2.31947
F          7.05695       -0.66790        0.63115
H          1.94380        1.74157        0.09420
H          2.80536        1.25010        1.38825
H          3.09581       -0.14343       -0.73313
H          1.45111       -0.65617       -0.39158
H          3.12541       -0.96770        2.25496
