32

C          0.86582        0.16886       -0.33164
S          2.58503       -0.13746        0.16339
C          3.23110       -0.86948       -1.38173
C          4.73879       -1.10895       -1.23134
C          5.38579       -1.98496       -2.33938
C          5.08816       -3.47675       -2.22314
C          4.28134       -3.93948       -1.16598
C          3.93658       -5.28044       -1.00031
C          4.38794       -6.22763       -1.91705
C          5.18545       -5.80160       -2.97523
C          5.55933       -4.45870       -3.14450
C          6.47367       -4.26320       -4.35025
O          6.38250       -5.01047       -5.31682
O          7.42660       -3.34174       -4.27741
C          4.86516       -1.31787       -3.73010
O          5.53755       -0.29970       -4.04806
O          3.85128       -1.82673       -4.24116
N          6.85200       -1.76329       -2.33383
H          0.35595        0.61675        0.53111
H          0.35633       -0.76648       -0.60105
H          0.81627        0.86784       -1.17781
H          3.04355       -0.17916       -2.21462
H          2.68710       -1.79929       -1.59459
H          4.96461       -1.53115       -0.23494
H          5.24207       -0.13259       -1.28160
H          3.90115       -3.23052       -0.43270
H          3.31091       -5.57428       -0.15470
H          4.12303       -7.28173       -1.81521
H          5.54267       -6.50581       -3.72698
H          7.31095       -2.74070       -3.42050
H          7.23697       -1.75055       -1.38682
H          6.94566       -0.83633       -2.78867
