19

C          0.57455       -0.29862       -0.14391
C          2.03534       -0.66508        0.01149
S          2.72808       -0.62342        1.52614
O          4.18519       -0.53597        1.52248
O          1.94495        0.22071        2.43273
C          2.47408       -2.31729        2.37198
F          1.14830       -2.63369        2.44575
F          3.08368       -3.32640        1.69769
F          2.95743       -2.34069        3.64646
C          2.77197       -1.14570       -1.16321
C          3.33062       -0.04900       -2.14215
F          4.24918        0.73008       -1.53525
F          3.92929       -0.58806       -3.24552
F          2.33524        0.76189       -2.59511
F          3.86249       -1.94141       -0.89003
F          1.92930       -1.91407       -2.01172
H          0.20962        0.12198        0.80045
H         -0.05923       -1.16310       -0.40552
H          0.42248        0.46694       -0.92264
