11

Al         0.86845        0.25883        0.25601
C          2.86258       -0.04090       -0.05496
C          3.48837        0.91159       -1.08591
H          0.30578       -0.80856        1.38987
H          0.06286        0.03143       -1.17465
H          0.62591        1.81340        0.77783
H          3.01479       -1.08849       -0.37588
H          3.39517        0.05333        0.91022
H          2.97251        0.83796       -2.05838
H          4.56590        0.73682       -1.28209
H          3.38948        1.96249       -0.76565
