71

C          9.36736       -0.14245        2.69182
C         10.03027       -0.64311        1.40560
C          9.02649       -1.12466        0.35430
C          9.68652       -1.61839       -0.93680
C          8.68342       -2.07329       -1.98612
Nb         7.40342       -0.92162       -3.31697
S          5.00169       -1.41913       -2.97332
O          5.83731       -2.70320       -3.04414
O          3.98570       -1.33147       -1.91598
C          3.92973       -1.62777       -4.55615
F          4.73274       -1.62409       -5.65439
F          3.23365       -2.78370       -4.54896
F          3.05217       -0.60632       -4.68525
C          8.60433       -0.08806       -4.97060
C          9.87629       -0.63958       -5.27516
C         10.57479       -0.31969       -6.44056
C         10.04606        0.57778       -7.39327
C          8.78413        1.13567       -7.10614
C          8.09495        0.81776       -5.93150
Si        10.97389        0.92618       -8.97948
C         11.02037       -0.68111      -10.01694
C          9.62406       -1.27250      -10.24717
C          9.53751       -2.47595      -11.17135
C         10.23036       -3.82643      -10.75986
C          9.90842       -4.47933       -9.36180
C          8.44512       -4.96074       -8.99055
C          7.76126       -6.04066       -9.91056
C          6.51182       -6.74909       -9.26094
F          5.62921       -5.84821       -8.80078
F          5.90906       -7.49562      -10.21259
F          6.87593       -7.56565       -8.25830
F          7.33491       -5.45252      -11.05426
F          8.65339       -7.01843      -10.22204
F          8.55455       -5.49743       -7.74268
F          7.63633       -3.87651       -8.91981
F         10.73022       -5.55880       -9.24300
F         10.25136       -3.58489       -8.39465
F          9.96293       -4.76049      -11.71871
F         11.58114       -3.62280      -10.75273
F          8.21298       -2.77637      -11.40944
F         10.08739       -2.17164      -12.40148
C         10.12715        2.28434       -9.99062
C         12.77007        1.42469       -8.65306
H         10.10870        0.20297        3.42835
H          8.77068       -0.93739        3.16513
H          8.68600        0.69573        2.48252
H         10.73248       -1.46069        1.64784
H         10.64489        0.16438        0.97163
H          8.32871       -0.31207        0.09531
H          8.40686       -1.93396        0.78157
H         10.39144       -2.43551       -0.67562
H         10.29865       -0.80157       -1.35563
H          8.07884       -2.92726       -1.62771
H          9.22693       -2.45533       -2.89652
H          8.52260        0.22247       -2.63650
H          7.02023       -0.21508       -1.76709
H          6.92142        0.76016       -3.36078
H         10.35196       -1.33100       -4.57112
H         11.55698       -0.77751       -6.60639
H          8.33060        1.84465       -7.80657
H          7.13327        1.30253       -5.74233
H         11.65883       -1.39834       -9.47973
H         11.51383       -0.47912      -10.98077
H          8.96484       -0.53373      -10.73167
H          9.14498       -1.52998       -9.29235
H          9.09243        2.02344      -10.25482
H         10.67545        2.47066      -10.92577
H         10.09349        3.22722       -9.42641
H         13.28935        0.66470       -8.05211
H         12.81172        2.37132       -8.09586
H         13.32936        1.55480       -9.59137
