53

F          7.36685        1.83680       -1.85180
C          6.97195        2.85905       -1.03041
C          5.47180        3.03998       -1.00927
C          4.86608        3.37191       -2.37791
Si         2.96760        3.58777       -2.33855
C          2.52603        4.81273       -0.99986
C          3.29227        5.98066       -0.80594
C          2.99336        6.89201        0.21153
C          1.93119        6.68225        1.11273
C          1.15709        5.51997        0.89882
C          1.43683        4.61379       -0.12234
Ta         1.43556        7.86916        2.90040
C         -0.49883        7.80863        4.05549
F         -1.40039        6.81843        3.73497
F         -0.20292        7.57380        5.41907
F         -1.23575        8.98266        4.08502
C          2.71534        9.23647        3.99200
C          2.73819       10.76373        3.95263
C          1.33861       11.35517        4.19250
C          1.34161       12.86077        4.33863
C         -0.06809       13.50615        4.50854
F         -0.84474       13.25862        3.43184
F         -0.69269       13.01460        5.60355
F          0.02420       14.84974        4.65400
F          2.07305       13.25789        5.44251
F          1.91331       13.47850        3.24681
C          2.44249        4.17723       -4.06077
C          2.17137        1.90109       -2.00266
F          7.46664        2.56665        0.20932
F          7.63170        3.97317       -1.45980
H          5.25406        3.83660       -0.28241
H          5.05520        2.10907       -0.59601
H          5.11733        2.58598       -3.10838
H          5.31054        4.30487       -2.75985
H          4.14075        6.19409       -1.46664
H          3.60200        7.79670        0.30290
H          0.31606        5.30019        1.56880
H          0.80605        3.72509       -0.22713
H          1.89454        9.02461        1.63667
H          2.21369        6.32095        3.44783
H          0.10557        8.19603        1.76688
H          3.71368        8.83714        3.71620
H          2.53479        8.87895        5.03501
H          3.09351       11.09009        2.96474
H          3.43497       11.18166        4.70062
H          0.89119       10.93807        5.10777
H          0.66937       11.09262        3.35897
H          2.88081        5.16041       -4.28401
H          1.34948        4.28550       -4.11110
H          2.75395        3.47520       -4.84872
H          2.46606        1.50083       -1.02210
H          2.46217        1.17050       -2.77180
H          1.07432        1.97329       -2.00995
