36

O          1.41442       -0.90165       -0.27497
Nb         3.06253        0.10339       -0.35803
C          4.27269        1.16743        1.17866
C          4.92734        2.39328        0.92835
C          5.65174        3.07017        1.91017
C          5.75217        2.53673        3.20302
C          5.12281        1.31029        3.48363
C          4.40877        0.65193        2.48866
C          6.52050        3.24275        4.27020
C          7.92678        2.64626        4.66736
C          9.04560        2.46824        3.56866
C          9.67014        3.70054        2.80022
C         10.38961        4.88269        3.56816
C         11.61137        4.56055        4.50658
F         12.52684        3.80011        3.87750
F         12.19749        5.73104        4.84828
F         11.23024        3.94376        5.63427
F         10.87339        5.70236        2.58842
F          9.48618        5.58123        4.29375
F         10.60165        3.16583        1.95785
F          8.71055        4.28348        2.04189
F         10.09633        1.84262        4.18976
F          8.57773        1.63955        2.60725
F          8.46446        3.39879        5.67679
F          7.72746        1.39038        5.16305
F          6.74504        4.56837        3.96326
F          5.82882        3.23685        5.47551
Br         4.97779       -1.63765       -0.27937
H          0.76001       -0.68759        0.40446
H          3.32615        0.42310       -2.07832
H          2.76339        1.76012       -0.91450
H          2.16029        1.17848        0.70574
H          4.85531        2.84777       -0.06274
H          6.13035        4.02144        1.67622
H          5.19261        0.87730        4.48261
H          3.93954       -0.30201        2.74836
