21

C          1.12749       -0.14962        0.42742
S          2.92852        0.03149        0.56159
C          3.45542       -1.61115       -0.07588
C          4.97693       -1.71648       -0.10753
Al         5.71388       -3.43379       -0.77965
S          4.72924       -3.73648       -2.94767
O          3.28624       -3.93670       -3.01531
O          5.32846       -2.75145       -3.84685
F          5.36169       -5.19492       -3.48009
S          4.80643       -5.21029        0.57490
O          3.43592       -5.01386        1.03463
O          5.25906       -6.56758        0.30495
F          5.73992       -4.73881        1.92352
H          0.67652        0.78248        0.79226
H          0.76629       -0.98456        1.04384
H          0.82208       -0.30812       -0.61622
H          3.02508       -1.72917       -1.08146
H          3.01742       -2.38361        0.57239
H          5.39122       -1.57000        0.90529
H          5.40428       -0.91721       -0.73793
H          7.27097       -3.72913       -0.93390
