51

C          2.71062       -0.09728        0.27678
C          1.20296       -0.06010        0.21556
C          0.43373       -1.18578        0.53416
C         -0.96079       -1.15826        0.46722
C         -1.64053        0.00233        0.07594
C         -0.86994        1.13699       -0.23125
C          0.52192        1.10607       -0.16495
C         -3.17240        0.05678        0.01817
C         -3.66498        0.62104        1.35751
F         -5.01371        0.54766        1.52733
F         -3.09628        0.01972        2.42772
F         -3.35842        1.97166        1.50260
C         -3.66815        0.82817       -1.17400
C         -4.73195        1.74980       -1.15420
C         -5.17925        2.37142       -2.31865
C         -4.57471        2.09158       -3.54931
C         -3.51215        1.17193       -3.59065
C         -3.07427        0.55596       -2.42813
C         -5.04593        2.75097       -4.80573
C         -5.86810        1.86570       -5.82153
C         -7.18048        1.13235       -5.34011
C         -8.44961        1.93117       -4.83937
C         -9.18597        2.98532       -5.76190
C         -9.74605        2.52592       -7.15903
F        -10.50424        1.42016       -7.04324
F        -10.52077        3.52122       -7.64790
F         -8.76401        2.29356       -8.04211
F        -10.26813        3.39979       -5.03944
F         -8.38424        4.05563       -5.97065
F         -9.37467        0.98004       -4.52437
F         -8.13235        2.59561       -3.70082
F         -7.60570        0.37372       -6.39918
F         -6.85579        0.29377       -4.32982
F         -6.19738        2.62809       -6.90845
F         -5.05314        0.86417       -6.26103
F         -5.82223        3.86029       -4.55023
F         -3.97428        3.19495       -5.56754
C         -3.73262       -1.57180       -0.17183
O         -4.15615       -2.07957        0.87416
O         -3.57076       -1.98829       -1.32733
H          3.07179       -1.08768        0.58510
H          3.10334        0.64070        0.99402
H          3.16040        0.13434       -0.70127
H          0.93453       -2.10965        0.83526
H         -1.53349       -2.05020        0.72238
H         -1.37152        2.05733       -0.53334
H          1.09019        2.00673       -0.41350
H         -5.22946        1.99796       -0.22001
H         -5.99753        3.08745       -2.26218
H         -3.02372        0.94087       -4.53713
H         -2.26175       -0.16451       -2.47745
