63

C          6.62376       -4.75996        0.18594
C          6.17486       -3.29540        0.17562
C          6.79463       -2.45557        1.29832
C          6.39544       -0.97459        1.26830
C          7.04822       -0.12088        2.37203
C          6.73594        1.37891        2.30105
In         7.61500        2.72834        3.89715
C          6.01404        2.84299        5.51735
C          4.83845        2.06381        5.45175
C          3.83511        2.11603        6.42241
C          3.98054        2.96745        7.53100
C          5.14485        3.74285        7.64582
C          6.12649        3.67329        6.65218
C          2.87189        3.09050        8.53277
C          2.62876        1.89748        9.53592
C          3.76455        1.46125       10.53686
C          4.27136        2.42309       11.69146
C          3.22267        2.98839       12.72255
C          3.86403        3.54304       14.05268
F          4.86292        4.40628       13.79233
F          2.90788        4.19609       14.74853
F          4.33568        2.54945       14.82645
F          2.53856        4.01109       12.15805
F          2.34710        2.01598       13.09058
F          5.16990        1.67603       12.40345
F          4.93684        3.46722       11.14560
F          3.31265        0.32843       11.15477
F          4.87159        1.13754        9.82488
F          1.52059        2.16988       10.29399
F          2.35557        0.78126        8.80124
F          3.00757        4.21623        9.31717
F          1.64628        3.20910        7.89156
C          9.50333        1.91643        4.91823
C          9.28725        1.37332        6.33880
C          8.41842        0.11310        6.44533
C         10.30134        0.93316        4.05403
H          6.16206       -5.33564       -0.63033
H          6.35681       -5.25225        1.13352
H          7.71593       -4.83952        0.07274
H          5.07492       -3.24741        0.25042
H          6.43036       -2.84130       -0.79722
H          7.89545       -2.53317        1.23846
H          6.51676       -2.89304        2.27415
H          5.29621       -0.88777        1.34373
H          6.66392       -0.54784        0.28481
H          8.13969       -0.27689        2.31926
H          6.74489       -0.53057        3.35313
H          5.64147        1.53164        2.32804
H          7.06772        1.77729        1.32653
H          7.93048        4.37977        3.29150
H          4.68619        1.39305        4.59977
H          2.93034        1.51473        6.31271
H          5.26941        4.41314        8.49780
H          7.00960        4.30960        6.76936
H         10.10873        2.83481        5.01654
H          8.83443        2.15887        6.96664
H         10.27243        1.14400        6.80549
H          7.41130        0.29595        6.04235
H          8.30729       -0.20634        7.49352
H          8.85364       -0.73113        5.88963
H          9.75151       -0.00162        3.86624
H         11.26227        0.64122        4.53179
H         10.54475        1.35771        3.06793
