14

N          1.01429       -0.08070       -0.05633
C          2.49686       -0.08613       -0.07795
C          3.05905       -0.94576        1.04979
C          4.59887       -0.95399        1.10870
N          4.95266       -1.77531        2.22711
Br         6.92040       -1.78661        2.30407
H          0.65847        0.63422       -0.69478
H          0.70686        0.20088        0.87809
H          2.92868        0.93155       -0.00120
H          2.81304       -0.49411       -1.05226
H          2.69333       -1.97980        0.94868
H          2.68266       -0.57091        2.01968
H          4.93743        0.12315        1.16582
H          4.97246       -1.30769        0.10240
