56

Cl         3.36737        1.18483        0.76552
C          3.82010       -0.32588       -0.02691
S          4.12885       -1.58580        1.05282
O          3.42353       -1.41851        2.31544
O          4.14095       -2.88302        0.37878
C          5.97322       -1.41782        1.60172
C          6.55703       -2.54152        2.50641
F          5.84328       -2.68596        3.64019
F          6.59468       -3.72677        1.86700
F          7.83990       -2.23802        2.87110
F          6.75805       -1.36186        0.48123
F          6.12577       -0.23974        2.27754
C          4.08978       -0.30570       -1.44399
C          3.96997        0.90516       -2.18512
C          4.20103        0.95776       -3.55563
C          4.56451       -0.17947       -4.30504
C          4.68186       -1.38437       -3.56840
C          4.45818       -1.45895       -2.20225
Si         4.90660       -0.13185       -6.13402
C          6.55839       -1.03544       -6.47785
C          7.70004       -0.57333       -5.56181
C          8.96353       -1.39461       -5.73578
C         10.22516       -0.94859       -4.91157
C         10.14663       -0.80029       -3.34440
C          9.77340       -2.02566       -2.41305
C         10.69102       -3.30342       -2.46309
C         10.48838       -4.29194       -1.25160
F          9.19362       -4.59417       -1.08091
F         11.16597       -5.43185       -1.52122
F         10.97987       -3.77520       -0.11326
F         10.43317       -3.99914       -3.59730
F         12.00143       -2.93739       -2.46157
F          9.82697       -1.53554       -1.14389
F          8.49975       -2.39659       -2.68073
F         11.36546       -0.33882       -2.94459
F          9.22598        0.16135       -3.06277
F         11.25563       -1.79827       -5.19003
F         10.57945        0.29537       -5.36170
F          8.73911       -2.72059       -5.45119
F          9.39341       -1.35212       -7.05049
C          3.58795       -1.03577       -7.15358
C          5.03510        1.65216       -6.76112
H          3.69549        1.81684       -1.65685
H          4.09882        1.92746       -4.05232
H          4.95932       -2.31124       -4.08215
H          4.55955       -2.41498       -1.69517
H          6.83406       -0.91019       -7.53661
H          6.38160       -2.11248       -6.32736
H          7.38685       -0.64292       -4.51023
H          7.96302        0.47888       -5.74737
H          3.46464       -2.06968       -6.80035
H          3.84829       -1.06921       -8.22257
H          2.61375       -0.53570       -7.05467
H          5.82345        2.21401       -6.24020
H          4.09006        2.19341       -6.60954
H          5.25973        1.67008       -7.83787
