35

S          1.71051        1.64021        0.49835
Ta         3.67069        0.32564       -0.14970
S          4.85668       -1.74235       -0.70134
O          5.31896       -2.40528       -1.92759
O          5.86475       -0.89517        0.04835
C          4.74271       -3.29995        0.52419
C          3.37458       -4.05646        0.61445
C          2.95602       -4.90947       -0.63447
C          1.47021       -5.43004       -0.60732
F          1.18664       -6.08385        0.53817
F          0.59023       -4.42660       -0.76031
F          1.29822       -6.29596       -1.63465
F          3.08511       -4.18287       -1.76809
F          3.75575       -6.00937       -0.71753
F          3.42410       -4.92303        1.68068
F          2.38285       -3.15798        0.86284
F          5.70236       -4.20010        0.15641
F          5.02632       -2.89100        1.78869
C          4.94373        2.08767        0.02959
C          5.25424        3.16220       -1.02131
C          3.99100        3.82065       -1.59156
C          6.20963        4.23744       -0.47277
H          0.78254        0.88371       -0.12758
H          2.53270       -0.14334       -1.41637
H          3.58930       -0.77607        1.24640
H          4.45968        0.18521       -1.73748
H          5.88839        1.63862        0.38985
H          4.47388        2.56695        0.92397
H          5.76901        2.65072       -1.85306
H          3.41374        4.31750       -0.79531
H          3.32691        3.07959       -2.05575
H          4.24840        4.58001       -2.34745
H          5.73719        4.78525        0.35948
H          6.48153        4.97387       -1.24725
H          7.13664        3.78631       -0.08924
