27

N          1.62174       -0.55100       -0.46962
C          2.47393        0.57393       -0.01531
C          3.62437        0.90229       -0.94168
S          3.36598        2.03630       -2.19177
O          2.09336        2.70784       -1.93730
O          4.53438        2.81569       -2.55872
C          3.01925        1.06232       -3.82557
C          2.27193        1.87046       -4.95369
C          0.70510        1.74009       -5.00003
F          0.33807        0.50336       -5.40249
F          0.11724        2.00501       -3.83054
F          0.23103        2.62234       -5.92155
F          2.58147        3.18936       -4.87609
F          2.69864        1.42342       -6.18091
F          4.21720        0.67168       -4.33676
F          2.29271       -0.05974       -3.55755
S          5.15947        0.25210       -0.59743
O          6.25539        0.90296       -1.29166
O          5.25847       -0.04802        0.82957
C          5.24195       -1.50983       -1.32396
F          5.08375       -1.52673       -2.66344
F          6.44418       -2.06854       -1.04076
F          4.28654       -2.32517       -0.78883
H          0.87478       -0.69499        0.21411
H          2.17349       -1.41071       -0.47597
H          2.91405        0.41119        0.98364
H          1.82974        1.46120        0.04528
