38

C          0.58749       -2.08149        2.30720
C          2.10045       -2.00050        2.53155
C          2.92234       -2.63433        1.40328
C          4.44389       -2.52961        1.59661
C          5.29082       -3.18371        0.49907
Ga         7.31403       -3.05335        0.85875
C          7.94585       -1.08976        0.39089
C          7.88464       -0.78446       -1.03991
O          8.81204       -0.66278       -1.82696
O          6.58786       -0.66540       -1.55717
C          8.49710       -4.44968       -0.04235
C          7.78929       -5.51142       -0.89353
C          7.22308       -4.95973       -2.20544
C          6.47803       -6.00767       -3.03534
H          0.02245       -1.62588        3.13458
H          0.25614       -3.12723        2.21277
H          0.29773       -1.56292        1.38029
H          2.35878       -2.49131        3.48572
H          2.39859       -0.94413        2.64712
H          2.64569       -2.16264        0.44263
H          2.64440       -3.69954        1.30453
H          4.71279       -2.97337        2.57171
H          4.70671       -1.45859        1.69230
H          5.00619       -2.77486       -0.48963
H          5.03951       -4.25887        0.43938
H          7.49852       -3.10983        2.46875
H          8.96680       -0.97461        0.76967
H          7.25120       -0.47095        0.97733
H          5.98268       -0.98731       -0.86442
H          9.04275       -4.94094        0.78096
H          9.26112       -3.93831       -0.65319
H          6.96233       -5.97015       -0.31870
H          8.47241       -6.35006       -1.14433
H          8.05033       -4.53281       -2.79745
H          6.55130       -4.11573       -1.98250
H          7.13088       -6.86164       -3.27893
H          6.10657       -5.59055       -3.98367
H          5.61108       -6.40482       -2.48398
