34

N          2.36507       -1.46660        0.02597
C          2.41709       -0.04141       -0.34599
C          2.90390        0.80249        0.82025
As         4.96403        0.75963        1.09449
C          5.25714        2.30192       -0.34785
C          6.62282        2.13226       -1.01256
C          6.58734        1.47649       -2.38009
O          7.09147        1.96139       -3.38335
O          5.96200        0.28080       -2.44588
C          4.90069        2.02566        2.78883
C          5.73273        1.39445        3.89085
C          6.09081        2.20451        5.13250
O          6.60884        1.70720        6.13557
N          5.82453        3.54580        5.05940
H          2.06747       -2.03417       -0.76825
H          1.67501       -1.60326        0.76703
H          1.44415        0.34280       -0.72675
H          3.13380        0.04286       -1.18355
H          2.47833        0.44536        1.77285
H          2.62572        1.85876        0.68710
H          4.86335       -0.50679        2.05939
H          6.58900        0.73293        1.24312
H          5.13965       -0.30260       -0.21846
H          5.18308        3.26960        0.16947
H          4.42788        2.22581       -1.06469
H          7.24411        1.48192       -0.34464
H          7.16888        3.07788       -1.12727
H          5.62441        0.01018       -1.52092
H          3.85606        2.19584        3.09165
H          5.33565        2.97129        2.42725
H          6.70096        1.06146        3.46579
H          5.26009        0.47042        4.25865
H          5.33418        3.92079        4.25594
H          6.02762        4.12713        5.86225
