35

N          0.80661       -3.04491        3.73959
C          2.09909       -2.56074        4.06368
N          2.46380       -2.05977        5.19602
N          2.97938       -2.70434        3.01536
C          4.41175       -2.43951        3.15652
C          5.04953       -2.33279        1.76918
C          6.57623       -2.16769        1.76416
C          7.29368       -3.47177        2.15593
C          8.83938       -3.44575        2.15135
S          9.37717       -5.06249        2.81906
O          8.42225       -6.11721        2.56915
O         10.78769       -5.30251        2.63274
F          9.20997       -4.74285        4.39870
S          9.41447       -3.36108        0.36565
O          8.88921       -4.52873       -0.34364
O          9.03519       -2.03466       -0.11382
C         11.20351       -3.43030        0.34678
C          9.50671       -2.22769        3.10471
O          8.68401       -1.77632        3.91194
O         10.70028       -1.97735        2.86575
H          0.10406       -2.74541        4.40904
H          0.51602       -2.81971        2.78950
H          1.65574       -1.92991        5.81107
H          2.75082       -3.45261        2.36692
H          4.89558       -3.22463        3.76253
H          4.52477       -1.50184        3.71639
H          4.58997       -1.47795        1.24695
H          4.78254       -3.23172        1.18029
H          6.88096       -1.37249        2.45820
H          6.88955       -1.86049        0.75957
H          6.95088       -4.29340        1.50737
H          7.01393       -3.73215        3.18697
H         11.52928       -4.46212        0.49515
H         11.54374       -2.76799        1.15478
H         11.46199       -3.05323       -0.65077
