30

C          1.59770        1.19861       -0.63294
C          2.85039        0.77767        0.13701
C          2.55543       -0.13320        1.34986
N          1.94787       -1.38231        0.88242
S          0.48209       -1.69522        1.26317
O         -0.29602       -0.60652        1.87363
O         -0.18980       -2.52344        0.26297
C          0.54371       -2.92489        2.75866
C          0.74267       -4.46124        2.51457
C          1.99839       -5.01959        1.73912
C          3.42855       -4.83057        2.36226
F          3.49435       -5.33049        3.61690
F          4.31380       -5.52621        1.59996
F          3.81783       -3.55529        2.38509
F          1.81652       -6.38358        1.67635
F          2.03422       -4.54735        0.47897
F          0.76333       -5.08234        3.74962
F         -0.33881       -4.94668        1.85074
F          1.52768       -2.52789        3.63986
F         -0.64239       -2.85495        3.44822
C          3.84726       -0.41445        2.13036
H          1.84840        1.85692       -1.47910
H          0.89073        1.73149        0.02042
H          1.07453        0.31606       -1.02469
H          3.39231        1.67198        0.49429
H          3.53702        0.23544       -0.53688
H          1.86067        0.41606        2.01447
H          4.54812       -0.99808        1.51417
H          3.63282       -0.99149        3.03828
H          4.34384        0.52467        2.42383
