33

S          4.22260        0.35890       -1.84684
C          3.05532        0.37763       -0.41852
C          3.70154        1.08449        0.77845
C          4.99392        0.44125        1.30109
Al         5.80270        1.36374        2.88791
C          4.46352        1.37417        4.51300
C          3.72038        0.11859        5.04970
C          4.62656       -0.94485        5.75628
C          3.96957       -2.35327        5.99557
F          2.79050       -2.25173        6.64273
F          3.77077       -3.01493        4.84067
F          4.80188       -3.09942        6.76164
F          5.74280       -1.16899        5.00929
F          5.00672       -0.48277        6.97867
F          2.73405        0.45012        5.94971
F          3.09983       -0.50017        3.98989
F          5.04500        1.96653        5.64697
F          3.40319        2.23148        4.15864
C          7.66032        0.80110        3.50821
C          8.74399        1.34987        2.64354
O          9.67058        0.72071        2.15712
O          8.65354        2.69933        2.37750
H          3.29980        0.03613       -2.78348
H          2.80463       -0.66153       -0.15886
H          2.13962        0.89718       -0.73616
H          2.93965        1.10944        1.57634
H          3.88704        2.13692        0.50481
H          5.76063        0.44531        0.50476
H          4.81009       -0.62489        1.52795
H          5.99954        2.98845        2.66245
H          7.83089       -0.27041        3.66043
H          7.70330        1.30688        4.48885
H          7.73565        2.99073        2.61416
