36

C          1.21125        0.42293        0.82404
O          2.50106        0.44446        0.24905
C          3.16805        1.68460        0.46935
C          4.55298        1.61179       -0.15738
O          5.15969        2.87349        0.03096
C          6.54979        2.87985       -0.37441
C          7.14187        4.24234       -0.14242
Sb         9.35298        4.19901        0.33464
S          9.76602        2.94806       -2.12893
O          8.56902        2.97232       -3.01699
O         11.05330        3.37700       -2.73367
C         10.00890        1.16918       -1.73666
C          9.14723        5.42898        2.21423
C         10.26210        6.40245        2.41657
O         10.94097        6.49503        3.42501
O         10.50616        7.24564        1.36498
H          0.77064       -0.55757        0.60042
H          0.56045        1.21405        0.40249
H          1.24925        0.55765        1.92305
H          3.25879        1.88942        1.55425
H          2.59625        2.51915        0.01770
H          4.46909        1.35741       -1.23348
H          5.14216        0.80655        0.32726
H          6.63671        2.59331       -1.43609
H          7.08249        2.11153        0.22983
H          6.71127        4.69670        0.76244
H          7.02833        4.92084       -0.99583
H          9.10846        2.60816        1.14380
H         11.10212        4.05478        0.43580
H          9.53707        5.79066       -0.56958
H          9.08838        0.78022       -1.28570
H         10.85513        1.07322       -1.04606
H         10.22274        0.67060       -2.69105
H          9.04758        4.77756        3.08823
H          8.20398        5.96380        2.03493
H         10.04604        6.88872        0.55821
