47

C          6.41991        3.08565        3.73013
C          5.99660        1.72307        4.28404
C          5.53264        0.74234        3.20276
C          5.06864       -0.60703        3.76352
C          4.68765       -1.64938        2.70264
C          5.86914       -2.37141        2.00951
C          6.74609       -3.19138        2.94695
S          6.19602       -4.76752        3.20033
O          6.64496       -5.38456        4.44889
O          4.79920       -4.90913        2.78989
C          7.10025       -5.86785        1.89300
C          6.79783       -7.39383        1.89411
F          7.17311       -7.97422        3.04935
F          5.48836       -7.64038        1.69260
F          7.48622       -8.01373        0.88716
F          6.79016       -5.40178        0.64119
F          8.45117       -5.73038        2.06214
C          8.01306       -2.71757        3.45870
C          8.82395       -3.41942        4.40739
C         10.03342       -2.90899        4.85741
C         10.53956       -1.67436        4.41789
C          9.76642       -0.97359        3.49191
C          8.54590       -1.46754        3.02718
C         10.23092        0.37428        3.01678
F         11.58513        0.52720        3.09400
F          9.88509        0.63173        1.72065
F          9.69666        1.40365        3.75502
C         10.86978       -3.69912        5.82648
F         10.23132       -4.77110        6.35573
F         12.01665       -4.17926        5.24245
F         11.29400       -2.93454        6.88502
H          6.74429        3.76624        4.53079
H          5.59037        3.57184        3.19307
H          7.25788        2.98073        3.02558
H          5.18629        1.85783        5.02162
H          6.83935        1.27425        4.83439
H          6.35592        0.59316        2.48365
H          4.70756        1.19753        2.62433
H          4.19915       -0.42687        4.41939
H          5.85263       -1.02910        4.41416
H          4.06280       -1.16945        1.92629
H          4.06547       -2.42924        3.16465
H          6.48627       -1.64784        1.45417
H          5.43835       -3.02767        1.24045
H          8.47733       -4.37578        4.78878
H         11.48844       -1.28545        4.78048
H          8.00462       -0.87265        2.29608
