73

C          0.85273       -0.99445        0.24052
C          2.34598       -0.68261        0.10640
C          2.92230        0.07687        1.30662
C          4.40917        0.41694        1.16291
C          4.99316        1.16948        2.36269
C          6.46856        1.54380        2.19189
C          7.05490        2.31242        3.38189
C          8.51966        2.73199        3.18289
Si         9.23091        3.87626        4.52552
C          8.34228        5.52468        4.53336
C          8.52012        6.42825        5.60280
C          7.91417        7.68620        5.59813
C          7.09635        8.10949        4.54025
C          6.90564        7.20607        3.48704
C          7.51627        5.94910        3.47227
P          6.20916        9.86149        4.57952
C          7.64282       10.83206        3.68854
C          8.80342       10.06343        3.06193
C          9.81406       10.92810        2.29450
C         10.94152       10.11204        1.65165
C         11.95355       10.94444        0.85673
C         13.06584       10.10738        0.21725
C          4.65360        9.13839        5.52320
N          4.25172        9.94780        6.68112
C          9.07892        3.01710        6.20994
C         11.07672        4.12331        4.16920
H          0.47206       -1.54393       -0.63239
H          0.26101       -0.07142        0.33631
H          0.65117       -1.60631        1.13303
H          2.51753       -0.09256       -0.81018
H          2.90862       -1.62206       -0.03170
H          2.76906       -0.52001        2.22356
H          2.34945        1.00904        1.45696
H          4.55547        1.02180        0.25029
H          4.98280       -0.51358        1.00097
H          4.87189        0.55648        3.27373
H          4.40644        2.08799        2.53873
H          6.58286        2.15817        1.28098
H          7.06442        0.62991        2.01474
H          6.96683        1.69261        4.29120
H          6.43427        3.20432        3.57015
H          8.63123        3.24829        2.21295
H          9.16547        1.83823        3.11722
H          9.15247        6.14628        6.45294
H          8.07608        8.37614        6.43500
H          6.26689        7.51259        2.65056
H          7.34908        5.29083        2.61267
H          6.84184       10.11955        5.93171
H          5.49288       11.19341        4.65070
H          5.60159        9.54639        3.23867
H          8.01443       11.54561        4.44708
H          7.11207       11.41242        2.91261
H          8.40598        9.29982        2.37013
H          9.34430        9.49757        3.84027
H         10.24774       11.68237        2.97669
H          9.28361       11.50090        1.51161
H         10.49841        9.34844        0.98662
H         11.47327        9.54577        2.43786
H         12.40011       11.70508        1.52013
H         11.42065       11.50828        0.07172
H         13.64433        9.56477        0.98092
H         13.77079       10.72844       -0.35569
H         12.64994        9.35514       -0.47076
H          4.83543        8.10486        5.86005
H          3.82947        9.12256        4.78826
H          4.22010       10.92401        6.35502
H          5.03771        9.93964        7.34108
H          8.02555        2.85603        6.47757
H          9.53259        3.62667        7.00439
H          9.58747        2.04106        6.20134
H         11.22111        4.59163        3.18514
H         11.62781        3.17080        4.18437
H         11.52327        4.79050        4.92056
