52

O          1.89107       -1.47632        0.88612
B          2.47612       -0.38176        0.07080
C          3.47109       -1.01704       -1.08402
F          2.81917       -1.96671       -1.87939
F          3.97436       -0.10166       -1.99780
F          4.59066       -1.69085       -0.62233
C          3.29622        0.64029        1.02425
C          3.51111        0.35195        2.38713
C          4.19516        1.22865        3.23291
C          4.71056        2.45495        2.76236
C          4.49933        2.74955        1.39851
C          3.81075        1.86840        0.56201
Si         5.65402        3.59966        3.90102
C          7.41425        2.92492        4.20358
C          8.27198        3.69182        5.22034
C          9.68199        3.11811        5.41204
C         10.51046        3.87275        6.45630
C         11.92256        3.31424        6.65538
C         12.73587        4.07065        7.70960
C         14.15208        3.52469        7.91404
C         14.94731        4.29633        8.96977
C          5.79692        5.33948        3.15553
C          4.77452        3.74188        5.57825
H          1.38379       -2.05513        0.30282
H          1.63301        0.25690       -0.58500
H          3.11685       -0.58865        2.77973
H          4.32675        0.95091        4.28524
H          4.87289        3.69071        0.98154
H          3.66060        2.14058       -0.48669
H          7.92544        2.89100        3.22544
H          7.31320        1.87093        4.51610
H          7.76284        3.70640        6.20000
H          8.36191        4.74979        4.91544
H         10.21244        3.12673        4.44355
H          9.60354        2.05590        5.70342
H          9.97541        3.85804        7.42268
H         10.57915        4.93673        6.16692
H         12.46283        3.33583        5.69247
H         11.85662        2.24936        6.94051
H         12.19595        4.04601        8.67304
H         12.79690        5.13678        7.42657
H         14.69266        3.54895        6.95269
H         14.09278        2.46092        8.20034
H         15.05112        5.35599        8.69140
H         15.95865        3.88526        9.09940
H         14.44502        4.26152        9.94831
H          6.33840        5.32410        2.19869
H          6.33312        6.02004        3.83345
H          4.80156        5.76679        2.96725
H          4.68417        2.75837        6.06208
H          3.75674        4.13497        5.44296
H          5.30961        4.41012        6.26910
