51

C          9.88669       -2.01399        0.60929
C          8.55982       -1.74839       -0.10622
C          8.72544       -1.52921       -1.61421
C          7.40967       -1.30800       -2.37610
C          6.60582       -0.06277       -1.96157
C          7.33992        1.27411       -2.16698
Al         7.69814        1.76493       -4.07789
S          6.18512        3.67903       -4.64131
O          5.28895        4.09391       -3.54281
O          6.87946        4.74669       -5.38945
C          4.89612        3.12094       -6.05285
C          3.77733        2.06408       -5.78485
C          2.73772        2.35439       -4.63870
C          1.39677        1.53491       -4.77162
F          1.63180        0.22239       -4.97256
F          0.69169        1.66158       -3.62294
F          0.62251        1.99247       -5.77543
F          3.27675        2.01376       -3.44404
F          2.38108        3.66363       -4.61655
F          3.05005        1.91919       -6.95302
F          4.35199        0.86390       -5.51639
F          4.28686        4.26817       -6.47244
F          5.62015        2.62866       -7.10510
C          9.49819        2.20520       -4.90002
C          9.97029        1.43868       -5.98145
C         11.19054        1.70666       -6.61071
C         11.98288        2.77487       -6.17661
C         11.54410        3.55888       -5.11037
C         10.32106        3.27343       -4.47657
C          9.80725        4.07341       -3.32520
O          8.71672        3.89075       -2.81871
O         10.61711        5.04517       -2.79980
H          9.74537       -2.17246        1.68869
H         10.57737       -1.16626        0.48449
H         10.38658       -2.90700        0.20241
H          8.07437       -0.86714        0.34196
H          7.87101       -2.59467        0.06399
H          9.24427       -2.40460       -2.04417
H          9.39751       -0.67032       -1.78032
H          6.77549       -2.20507       -2.25298
H          7.63165       -1.23336       -3.45412
H          6.28126       -0.17845       -0.90947
H          5.67443       -0.06087       -2.55253
H          8.27205        1.30821       -1.57743
H          6.72535        2.09709       -1.76548
H          7.07180        0.68553       -5.12685
H          9.34967        0.61559       -6.34839
H         11.52409        1.09204       -7.45064
H         12.92844        3.00306       -6.67160
H         12.17339        4.40561       -4.80994
H         11.45445        5.04898       -3.29507
