29

C          0.60753        1.08223       -0.73208
C          2.05301        0.55359       -0.72338
C          3.07776        1.54296       -0.19093
Nb         5.25811        1.24788        0.11107
C          6.65149       -0.49862       -0.06703
C          7.64072       -0.92453        0.86154
C          8.49471       -1.99428        0.61274
C          8.40908       -2.73692       -0.58408
C          7.45310       -2.37176       -1.52111
C          6.60389       -1.27326       -1.26845
C          5.59764       -0.79890       -2.19431
O          4.86488        0.15717       -1.90766
O          5.42451       -1.37525       -3.42543
F          5.37419        3.02430        0.91912
H         -0.10549        0.33891       -1.12884
H          0.52250        1.99091       -1.35012
H          0.28027        1.35131        0.28533
H          2.33150        0.25321       -1.74684
H          2.09744       -0.36834       -0.11993
H          2.82988        1.83168        0.85344
H          3.04303        2.48757       -0.77887
H          5.71816        0.77663        1.75496
H          4.57933       -0.34197        0.58646
H          6.58034        1.63674       -1.05907
H          7.72432       -0.38762        1.80990
H          9.24462       -2.27376        1.35928
H          9.07562       -3.58169       -0.76619
H          7.37624       -2.95636       -2.44888
H          6.08165       -2.08879       -3.50383
