47

N          1.69550        1.11308       -1.27398
C          2.31422       -0.13453       -0.77703
C          3.85157       -0.06163       -0.83024
C          4.53999       -1.31460       -0.35880
C          4.82389       -1.53567        0.98886
C          5.50061       -2.72657        1.46793
C          5.78520       -2.92930        2.80882
C          5.44881       -1.99557        3.80962
C          4.78810       -0.82899        3.36961
C          4.47697       -0.59822        2.03988
C          4.37051        0.16818        4.40717
F          3.31022       -0.27107        5.17154
F          5.36849        0.44618        5.30961
F          3.98007        1.37333        3.89851
C          6.44616       -4.20380        3.23617
F          5.58801       -5.05006        3.90510
F          6.95562       -4.94195        2.20485
F          7.49189       -3.99917        4.10279
C          4.93766       -2.31799       -1.40671
C          6.41102       -2.20201       -1.86774
C          6.85103       -3.32613       -2.80825
C          8.29720       -3.18974       -3.27830
N          8.67364       -4.31602       -4.12618
C          9.90975       -4.40505       -4.73498
N         10.93210       -3.62980       -4.59133
N          9.99944       -5.50025       -5.61678
H          0.67740        1.03003       -1.27309
H          1.96791        1.26062       -2.24868
H          1.98930       -1.03955       -1.32871
H          1.99993       -0.27407        0.26871
H          4.16530        0.83025       -0.25872
H          4.14097        0.14971       -1.87977
H          5.80241       -3.49432        0.75822
H          5.69394       -2.15821        4.85568
H          3.95711        0.32337        1.78405
H          4.28976       -2.21142       -2.29785
H          4.77238       -3.35569       -1.05547
H          7.05628       -2.19746       -0.97407
H          6.55576       -1.22204       -2.35427
H          6.18488       -3.35186       -3.69151
H          6.72939       -4.29693       -2.29753
H          8.96998       -3.16477       -2.40490
H          8.42582       -2.22817       -3.81344
H          7.90720       -4.73878       -4.64203
H         10.69534       -2.81180       -4.02423
H          9.62569       -6.36339       -5.22744
H         10.96438       -5.61857       -5.91539
