15

C          1.01694       -0.02077        0.01861
Ga         3.00910       -0.17070        0.41291
C          3.88429       -0.96763       -1.27480
O          5.37453       -1.01832       -1.11583
C          6.07620       -1.50500       -2.11228
F          5.80116       -2.82359       -2.43221
F          5.94175       -0.82380       -3.30964
F          7.40440       -1.46086       -1.79768
H          0.48728        0.33318        0.91723
H          0.57633       -0.98955       -0.26556
H          0.81324        0.69707       -0.79150
H          3.65906        1.27853        0.67744
H          3.28275       -1.18082        1.63848
H          3.68514       -0.36399       -2.17424
H          3.55363       -2.00044       -1.46772
