56

N          7.68706        0.08090       -4.39522
C          7.98829        1.34121       -3.67775
C          6.89638        1.67778       -2.65637
C          7.15531        2.94141       -1.82904
In         5.49554        3.51209       -0.38973
C          4.08548        4.83349       -1.58805
C          4.30926        5.14464       -2.94669
C          3.43575        5.94405       -3.69255
C          2.26443        6.48200       -3.11782
C          2.01842        6.16814       -1.76569
C          2.90598        5.37078       -1.03353
Si         1.13008        7.60413       -4.09239
C          0.39720        6.68254       -5.60289
C         -0.62553        7.50718       -6.39338
C         -1.17223        6.82151       -7.62689
F         -1.80622        5.64925       -7.34307
F         -2.08906        7.61080       -8.27278
F         -0.20264        6.53281       -8.54111
C         -0.30709        8.21784       -3.02011
C          2.08168        9.10759       -4.75052
C          4.31174        1.66187        0.19439
C          2.97995        1.38492       -0.52195
C          3.16429        1.13072       -2.02447
C          2.21887        0.20120        0.10739
H          8.32033       -0.03725       -5.18842
H          6.74684        0.14455       -4.79324
H          8.11248        2.20884       -4.35790
H          8.95071        1.20838       -3.15496
H          6.76420        0.80273       -1.99720
H          5.94249        1.77295       -3.20895
H          7.32461        3.80148       -2.50201
H          8.08537        2.82193       -1.24727
H          6.08523        4.40095        1.04134
H          5.20296        4.75452       -3.44680
H          3.67546        6.15458       -4.74228
H          1.12189        6.55647       -1.27095
H          2.66449        5.16908        0.01604
H         -0.06368        5.74834       -5.24667
H          1.23069        6.38572       -6.25938
H         -0.19529        8.45809       -6.74317
H         -1.49924        7.75940       -5.77362
H         -0.93548        7.38572       -2.67149
H         -0.94927        8.91879       -3.57340
H          0.06888        8.74548       -2.13220
H          2.92487        8.79014       -5.38104
H          2.49782        9.68741       -3.91458
H          1.44741        9.78184       -5.34573
H          4.13152        1.73747        1.28036
H          4.98084        0.79164        0.05665
H          2.33505        2.27806       -0.42171
H          3.82772        0.26574       -2.19115
H          3.61481        2.00090       -2.52095
H          2.20294        0.91722       -2.51980
H          2.80765       -0.72660        0.01227
H          1.24253        0.03037       -0.38005
H          2.03955        0.37028        1.17988
