25

C          7.41685       -0.45312       -2.10241
S          6.13312       -1.29699       -1.13884
C          6.60245       -0.73238        0.54283
C          5.57341       -1.17698        1.58248
Ga         5.54126       -3.15247        2.05003
C          4.07989       -3.67800        3.36307
C          2.68899       -3.67272        2.69655
C          1.57897       -4.24284        3.56635
O          0.63613       -3.58884        4.01442
N          1.68091       -5.60023        3.81406
Br         7.68841       -3.49134        3.27802
H          7.25050       -0.70305       -3.15906
H          8.42199       -0.79525       -1.81546
H          7.35863        0.63980       -1.98355
H          6.69542        0.36800        0.48176
H          7.59635       -1.14631        0.77846
H          4.56657       -0.84102        1.27938
H          5.80437       -0.66142        2.52897
H          5.56759       -4.19037        0.83845
H          4.07646       -3.03176        4.25439
H          4.34520       -4.69214        3.70700
H          2.72499       -4.25541        1.75805
H          2.38333       -2.65079        2.43383
H          2.58417       -6.04277        3.68096
H          1.10508       -5.95996        4.56769
