52

C          0.68467       -0.13514        0.02394
C          2.21515       -0.17560        0.05734
C          2.83183       -1.04542       -1.04397
C          4.36372       -1.06547       -1.02518
C          4.99133       -1.94454       -2.11213
C          6.52372       -1.92628       -2.10729
C          7.16039       -2.82890       -3.17162
C          8.69579       -2.79894       -3.17520
Si         9.51866       -4.01446       -4.39443
C          8.97713       -5.75317       -4.03069
C          8.83863       -6.21077       -2.69683
C          8.45101       -7.50659       -2.39653
C          8.17177       -8.46883       -3.41457
C          8.31217       -8.00885       -4.75980
C          8.69749       -6.70334       -5.03958
N          7.79825       -9.71310       -3.00165
S          7.47034      -10.89966       -4.02596
O          6.29155      -10.67050       -4.88224
O          8.64816      -11.44339       -4.72598
C          6.97957      -12.15380       -2.82514
C          9.06084       -3.50516       -6.16455
C         11.39561       -3.78632       -4.20109
H          0.27661        0.48888        0.83212
H          0.25641       -1.14301        0.13342
H          0.31732        0.27397       -0.92971
H          2.55178       -0.54629        1.04072
H          2.61187        0.85082       -0.02776
H          2.48365       -0.68660       -2.02920
H          2.45066       -2.07760       -0.94988
H          4.71024       -1.41153       -0.03502
H          4.74045       -0.03185       -1.12966
H          4.62619       -1.61751       -3.10222
H          4.63959       -2.98389       -1.99129
H          6.88865       -2.23641       -1.11159
H          6.87718       -0.88812       -2.24675
H          6.78057       -2.53339       -4.16564
H          6.81807       -3.86603       -3.01901
H          9.07234       -3.03543       -2.16375
H          9.06046       -1.77941       -3.39654
H          9.03561       -5.52680       -1.86357
H          8.34452       -7.83093       -1.35904
H          8.10371       -8.69678       -5.57950
H          8.78040       -6.41375       -6.09222
H          6.11153      -11.78747       -2.26671
H          7.82074      -12.34580       -2.15045
H          6.72417      -13.05384       -3.39758
H          7.98233       -3.61437       -6.34461
H          9.58623       -4.12579       -6.90443
H          9.33742       -2.45636       -6.34994
H         11.71219       -4.06028       -3.18417
H         11.70559       -2.74662       -4.38959
H         11.93503       -4.43952       -4.90187
