20

C          1.39382       -0.52683       -0.24600
P          2.92488        0.27285        0.57574
C          2.06272        0.30124        2.29691
C          2.72801        1.18421        3.37292
C          3.79622        0.44405        4.17049
O          3.66537        0.14869        5.36557
N          4.91249        0.12218        3.45540
F          3.75791        0.33487       -0.97843
H          0.57545        0.20889       -0.32733
H          1.05142       -1.38394        0.35817
H          1.65775       -0.88135       -1.25089
H          2.43365        1.64080        0.30241
H          4.17896        0.89329        1.13531
H          3.51378       -1.06739        0.78467
H          1.96267       -0.73536        2.66310
H          1.04347        0.67882        2.11672
H          2.00170        1.55067        4.11280
H          3.18283        2.06122        2.87498
H          4.88957        0.27537        2.43572
H          5.56168       -0.53760        3.86808
