39

C          2.06027        2.94035       -4.34889
C          3.16802        2.00632       -4.85715
C          2.71507        0.54859       -4.86011
Sb         2.64796       -0.47441       -2.82868
C          0.38217       -0.34399       -2.82487
C         -0.28951       -1.25431       -1.81067
C         -1.81796       -1.09518       -1.73869
C         -2.47314       -1.96445       -0.66410
N         -3.91084       -1.71775       -0.59683
C         -4.72265       -2.29785        0.35519
N         -4.38135       -3.04215        1.35466
N         -6.08783       -2.00269        0.15957
O          2.31072       -2.30643       -3.86452
C          3.65505        2.47271       -6.24198
H          1.73082        2.64533       -3.34346
H          1.18648        2.89857       -5.02111
H          2.40128        3.98758       -4.30341
H          4.02462        2.09813       -4.15929
H          3.41143       -0.09171       -5.42247
H          1.71652        0.43931       -5.31530
H          2.90928        1.08670       -1.96562
H          4.42441       -0.77105       -2.96921
H          2.60296       -1.35610       -1.26937
H          0.09343       -0.61206       -3.85194
H          0.12781        0.71528       -2.65108
H          0.13190       -1.06961       -0.80476
H         -0.03900       -2.30185       -2.05047
H         -2.25711       -1.34136       -2.72313
H         -2.06896       -0.03906       -1.54053
H         -2.03693       -1.72527        0.31957
H         -2.25980       -3.03279       -0.86213
H         -4.35658       -1.51376       -1.48683
H         -3.38835       -3.28411        1.30413
H         -6.26259       -1.02097       -0.04592
H         -6.62044       -2.30930        0.97031
H          3.19064       -2.69430       -3.99261
H          2.83190        2.43248       -6.97489
H          4.46194        1.82513       -6.61591
H          4.03156        3.51081       -6.21672
