15

N          0.93818       -2.40987       -0.32033
N          2.38922       -2.49028       -0.42917
C          2.82466       -1.21038       -0.80619
C          4.36060       -1.16853       -0.81551
C          4.88782       -2.31303       -1.67070
S          6.72486       -2.44798       -1.75903
H          0.64552       -3.36310       -0.08039
H          0.53670       -2.27265       -1.28365
H          2.43953       -0.36073       -0.15981
H          2.48621       -0.88753       -1.86800
H          4.74231       -1.27633        0.21257
H          4.71689       -0.20069       -1.21333
H          4.49580       -2.24543       -2.69639
H          4.53858       -3.26372       -1.24467
H          6.98049       -1.22267       -2.29590
