28

N          0.67134        0.11486        0.16002
C          2.13514        0.31322        0.15809
C          2.82247       -0.64017        1.13236
C          4.34042       -0.44480        1.17452
C          4.99774       -1.34921        2.22792
C          6.53024       -1.19918        2.43730
C          7.38605       -2.07768        1.49413
C          7.12683       -2.16436       -0.06496
F          7.18557       -1.01201       -0.73243
F          8.06767       -2.99102       -0.60900
F          5.91701       -2.73923       -0.32196
F          8.71376       -1.77493        1.62130
F          7.26514       -3.43405        1.84342
C          6.94482        0.37075        2.38645
O          6.93947        0.91582        3.51407
O          7.15733        0.83486        1.24862
S          6.96118       -1.66314        4.17819
H          0.22510        0.80387       -0.44778
H          0.31042        0.29598        1.09959
H          2.43762        1.35048        0.40403
H          2.49674        0.11508       -0.86418
H          2.56879       -1.67773        0.85642
H          2.40537       -0.47974        2.14461
H          4.57696        0.60291        1.41147
H          4.75559       -0.62026        0.17283
H          4.74966       -2.40629        2.02882
H          4.55025       -1.11003        3.20284
H          6.70214       -2.99700        4.05790
