25

C          3.74316       -0.15736       -1.50236
C          2.78676        0.10165       -0.33193
C          2.60505       -1.19897        0.48768
C          1.59277       -1.14182        1.61606
S          2.09992       -1.10320        3.22887
O          3.52297       -0.77229        3.28897
O          1.15826       -0.47838        4.14344
C          2.13188       -2.90407        3.83905
F          2.92396       -3.67089        3.04022
F          2.64176       -2.97311        5.09811
F          0.90723       -3.46847        3.86208
S         -0.05202       -1.09476        1.22046
O         -0.23474       -1.52406       -0.15546
O         -0.95518       -1.54737        2.25262
F         -0.41011        0.53181        1.11672
C          3.27203        1.27070        0.52989
H          3.38173       -0.97873       -2.13987
H          4.74525       -0.43424       -1.13445
H          3.85606        0.73744       -2.13362
H          1.80069        0.36575       -0.74984
H          3.57518       -1.47185        0.93172
H          2.32664       -2.00823       -0.20669
H          4.25689        1.05181        0.97139
H          2.57761        1.46526        1.35764
H          3.35892        2.19044       -0.06935
