31

N          3.53554       -0.61019        0.42773
C          2.85142        0.20331       -0.58703
Nb         3.41336        2.31960       -0.87380
C          1.81366        3.25611       -2.14817
C          1.68543        2.90343       -3.64651
C          2.77198        3.59768       -4.48051
C          1.69112        1.38946       -3.90948
C          5.40963        2.17691       -1.84579
O          6.26306        3.38255       -1.99445
C          7.41138        3.23389       -2.62752
F          8.26759        2.31527       -2.06183
F          7.29359        2.84015       -3.94861
F          8.07086        4.42553       -2.64276
H          3.01289       -1.45941        0.66096
H          3.60023       -0.05137        1.28117
H          1.74502        0.28125       -0.44525
H          3.00008       -0.27383       -1.58239
H          4.52514        3.28335        0.08897
H          3.22798        2.03145        0.86477
H          2.73387        3.63532        0.06713
H          1.84470        4.35360       -2.03720
H          0.89404        2.94234       -1.61096
H          0.71048        3.28175       -4.02200
H          3.77796        3.27397       -4.17001
H          2.72775        4.68929       -4.34937
H          2.66328        3.37824       -5.55532
H          2.67052        0.94425       -3.66897
H          1.48260        1.16231       -4.96796
H          0.93793        0.87318       -3.29554
H          5.32329        1.72767       -2.85696
H          5.95007        1.45221       -1.20648
