37

C          2.53192        1.15794       -0.04834
C          3.29905        0.81526       -1.32630
C          2.43815       -0.03284       -2.29335
C          2.11832       -1.44532       -1.87058
S          0.56352       -1.94540       -1.75137
O         -0.42052       -0.94500       -2.17689
O          0.40917       -3.35754       -2.20031
C         -0.15741       -2.20995        0.06634
C          0.55234       -3.19546        1.06722
C          1.67914       -2.64494        2.03389
C          1.31255       -1.61180        3.17598
F          0.12476       -1.89025        3.74757
F          2.26485       -1.69163        4.14106
F          1.29712       -0.34644        2.73793
F          2.16745       -3.74715        2.68416
F          2.69236       -2.10483        1.31287
F         -0.38548       -3.77428        1.88601
F          1.14985       -4.20898        0.37868
F         -0.22255       -0.98375        0.69164
F         -1.44720       -2.65201       -0.05824
C          3.21627       -2.48679       -1.80987
C          3.58940       -3.10179       -3.16703
O          4.71367       -3.07246       -3.64007
O          2.57820       -3.70899       -3.81988
C          3.80458        2.07905       -2.03323
H          2.13741        0.24989        0.41802
H          1.67231        1.81046       -0.27206
H          3.16931        1.67475        0.68570
H          4.18370        0.21501       -1.04417
H          2.97095       -0.07316       -3.26463
H          1.49468        0.49933       -2.49227
H          2.93582       -3.32417       -1.15265
H          4.13933       -2.05711       -1.39414
H          1.73354       -3.60807       -3.28468
H          2.96025        2.71232       -2.35216
H          4.38803        1.82742       -2.93180
H          4.44344        2.68607       -1.37325
