35

F          1.02896        0.94653       -0.02992
C          1.93342       -0.10282        0.11213
S          1.88042       -1.17196       -1.18118
O          1.47280       -0.51462       -2.40717
O          2.99592       -2.10248       -1.15588
F          0.56869       -2.21593       -0.92003
C          2.47566       -0.30017        1.41185
C          2.17937        0.65117        2.43831
C          2.71501        0.53476        3.71312
C          3.58122       -0.52183        4.08134
C          3.86567       -1.46517        3.06103
C          3.34487       -1.37271        1.77973
Si         4.22387       -0.69493        5.81541
C          2.85580       -1.36618        6.97790
C          2.21048       -2.65854        6.46774
C          1.12809       -3.20754        7.36855
F          0.09416       -2.33631        7.54831
F          0.58425       -4.35806        6.86912
F          1.59319       -3.51704        8.61959
C          5.68684       -1.89977        5.89229
C          4.76072        0.96813        6.55198
H          1.51741        1.48446        2.20474
H          2.44536        1.29958        4.44961
H          4.52867       -2.30885        3.27613
H          3.60121       -2.12288        1.03415
H          2.08466       -0.58487        7.07361
H          3.27689       -1.52045        7.98514
H          2.95153       -3.46506        6.35621
H          1.75774       -2.50294        5.47680
H          5.41780       -2.90170        5.52821
H          6.05094       -2.00599        6.92508
H          6.52067       -1.53961        5.27309
H          3.94286        1.70201        6.50987
H          5.60891        1.38629        5.99174
H          5.06269        0.86244        7.60492
