30

S          5.85002       -1.05955        2.75436
C          5.20692       -1.01699        1.02776
C          5.79247        0.19563        0.30037
C          5.24784        0.33775       -1.13248
Al         6.02432        1.91948       -2.04963
S          4.66187        2.74391       -3.89666
O          3.56182        3.54729       -3.32763
O          5.47634        3.34683       -4.96978
C          3.61700        1.36172       -4.81773
C          4.40242        0.27779       -5.59391
F          5.10529        0.80810       -6.60969
F          5.24415       -0.36640       -4.76311
F          3.55077       -0.64968       -6.12442
F          2.85407        0.72430       -3.87789
F          2.78658        1.99914       -5.68569
S          8.14295        1.32088       -2.92507
O          8.92778        1.09984       -1.67787
O          8.17644        0.24061       -3.93665
C          8.89307        2.76560       -3.73552
H          5.18097       -2.16474        3.15821
H          4.11058       -0.95252        1.05937
H          5.49379       -1.94623        0.51677
H          6.89108        0.11098        0.28446
H          5.56089        1.10200        0.88487
H          4.14831        0.43462       -1.11335
H          5.47065       -0.56969       -1.71788
H          6.20995        3.33465       -1.32098
H          8.94659        3.58860       -3.01322
H          8.27314        3.03582       -4.59918
H          9.89645        2.44640       -4.04776
