33

C          0.62606        3.72010       -4.43435
C          2.12408        3.48834       -4.65038
C          2.86590        3.04991       -3.38354
C          4.35756        2.75653       -3.60365
C          5.11142        2.29905       -2.34270
Al         6.97074        1.67138       -2.71448
S          7.71128        0.34755       -0.78974
O          6.76726       -0.73856       -0.45324
O          9.14735        0.00689       -0.87996
C          7.65982        1.44192        0.80673
F          6.39848        1.87040        1.07641
F          8.10191        0.75080        1.88307
F          8.44141        2.54489        0.67037
C          8.42245        3.07091       -2.96017
O          7.96748        4.39864       -2.46877
C          8.80875        5.41052       -2.62078
F          9.14042        5.67537       -3.93380
F          8.23333        6.53969       -2.12945
F         10.00857        5.25664       -1.97240
H          0.11995        4.02629       -5.36204
H          0.45013        4.50540       -3.68326
H          0.13366        2.80504       -4.07137
H          2.58773        4.40967       -5.04268
H          2.26693        2.72306       -5.43280
H          2.38336        2.14481       -2.97287
H          2.75958        3.82750       -2.60599
H          4.83648        3.66160       -4.01960
H          4.44234        1.98696       -4.39320
H          4.57096        1.45417       -1.87934
H          5.10842        3.10755       -1.59202
H          7.13828        0.49745       -3.81455
H          8.67666        3.18519       -4.02682
H          9.34840        2.81059       -2.42422
