28

N          2.56500       -0.46394       -0.53258
C          2.49760       -0.34459        0.82779
O          1.82757       -1.11971        1.51548
C          3.29420        0.82180        1.42826
C          4.17276        1.66817        0.50442
In         5.34731        3.28642        1.63109
C          7.54502        2.70960        1.24183
C          8.23062        2.48163        2.45567
C          9.58708        2.15078        2.51786
C         10.33452        2.03859        1.34113
C          9.70366        2.25926        0.12205
C          8.33243        2.58036        0.06719
C          7.80198        2.75455       -1.33051
O          8.51184        2.91240       -2.31202
O          6.45795        2.69531       -1.49423
H          2.12892       -1.26376       -0.97303
H          3.19827        0.13117       -1.05590
H          3.88805        0.37119        2.24041
H          2.54771        1.44343        1.95061
H          3.56960        2.16950       -0.27004
H          4.89983        1.01401       -0.00834
H          4.97668        4.89448        0.99738
H          5.14943        3.04305        3.37369
H          7.67684        2.56448        3.39556
H         10.06260        1.98075        3.48779
H         11.39531        1.78077        1.37453
H         10.25077        2.18573       -0.81939
H          6.04085        2.53488       -0.61700
