39

F          0.71008       -1.20513        1.62920
C          1.99503       -1.68522        1.68226
O          2.21837       -2.71315        0.87320
C          2.00031       -2.51267       -0.61593
Nb         3.15448       -4.24240       -1.32995
C          4.88935       -3.99474       -2.72358
C          5.82682       -2.78007       -2.50039
C          6.27460       -2.59787       -1.01432
F          5.20097       -2.81775       -0.17815
F          7.24626       -3.44977       -0.65913
F          6.70720       -1.34474       -0.77963
F          6.98123       -2.81199       -3.24722
F          5.15059       -1.64134       -2.85615
F          5.63543       -5.11516       -2.20407
F          4.85965       -4.16625       -4.08743
C          2.77197       -6.25098       -0.51182
C          1.91493       -6.40349        0.60230
C          1.77311       -7.62820        1.26606
C          2.47934       -8.75947        0.83911
C          3.33206       -8.63228       -0.25775
C          3.47727       -7.40149       -0.91755
C          4.09310       -9.82576       -0.76560
F          3.95317      -10.92862        0.02819
F          3.69277      -10.20375       -2.01869
F          5.43531       -9.58532       -0.85756
C          0.88871       -7.74295        2.47586
F         -0.11055       -6.82110        2.49582
F          0.29057       -8.97055        2.57438
F          1.58647       -7.57608        3.64635
F          2.80105       -0.59831        1.43664
F          2.22573       -2.06355        2.96620
H          2.51964       -1.57904       -0.89842
H          0.92272       -2.39895       -0.76878
H          1.56403       -4.72115       -1.79109
H          2.90234       -5.16002       -2.76835
H          2.37149       -3.47639       -2.67881
H          1.32388       -5.55342        0.95464
H          2.35757       -9.71598        1.34386
H          4.14865       -7.34468       -1.77804
