59

C          4.74167       -1.85666       -3.17062
C          4.64740       -1.06334       -1.86444
C          4.93173       -1.90214       -0.61342
C          4.72546       -1.13068        0.69517
C          5.02477       -1.93644        1.97680
C          6.49296       -2.25425        2.21739
Sb         6.86542       -3.40046        4.12542
C          6.54087       -5.36728        2.98301
C          7.32029       -5.81518        1.90329
C          6.97122       -6.96446        1.18188
C          5.82954       -7.72411        1.51472
C          5.06670       -7.28384        2.61587
C          5.41828       -6.12983        3.32526
Si         5.27583       -9.19670        0.49144
C          6.73116      -10.37866        0.09965
C          6.26610      -11.70974       -0.50691
C          7.38212      -12.63122       -0.95124
F          8.24039      -12.94897        0.05672
F          6.88604      -13.81816       -1.42735
F          8.13401      -12.09859       -1.95637
C          3.94531      -10.18661        1.40973
C          4.55555       -8.62948       -1.16924
C          9.17372       -3.30336        3.68204
C          9.89682       -4.58667        3.75829
O         10.60214       -5.07443        2.88310
O          9.72308       -5.28553        4.93155
H          4.54451       -1.22277       -4.04791
H          4.01449       -2.68266       -3.18532
H          5.74113       -2.29934       -3.29661
H          3.64085       -0.61723       -1.78056
H          5.35093       -0.21367       -1.89736
H          5.96290       -2.28982       -0.66203
H          4.27468       -2.79047       -0.61401
H          3.67950       -0.77317        0.72677
H          5.35939       -0.22546        0.68610
H          4.44112       -2.87455        1.94966
H          4.63264       -1.36927        2.83914
H          7.09576       -1.33645        2.31179
H          6.92395       -2.87725        1.42031
H          7.04851       -1.87619        5.06086
H          7.38951       -4.36049        5.61027
H          5.14721       -3.52745        4.59699
H          8.22765       -5.27702        1.61508
H          7.60846       -7.27057        0.34468
H          4.17777       -7.84352        2.92352
H          4.78729       -5.80593        4.16212
H          7.30120      -10.56411        1.02238
H          7.41815       -9.86841       -0.59387
H          5.63509      -11.55495       -1.39579
H          5.66663      -12.28457        0.21424
H          4.32701      -10.59165        2.35795
H          3.58266      -11.02768        0.80084
H          3.07669       -9.55524        1.64359
H          5.29813       -8.05312       -1.73947
H          3.68618       -7.97691       -1.00644
H          4.22875       -9.47513       -1.79359
H          9.41565       -2.64946        4.53003
H          9.36773       -2.79554        2.73135
H          8.92498       -4.91185        5.39158
