58

C          9.61552       -6.02114        1.47935
C          9.19077       -4.59425        1.12232
C          9.57563       -3.56267        2.18738
C          9.15335       -2.13113        1.84345
C          9.52887       -1.10451        2.91606
C          9.09043        0.32537        2.58638
C          9.44368        1.34402        3.67738
C          8.96421        2.77130        3.37674
Si         9.33203        4.07306        4.72204
C          8.52802        5.70514        4.29148
C          7.29294        5.77093        3.61047
C          6.65921        6.99207        3.36508
C          7.20608        8.22470        3.78095
C          8.45156        8.14966        4.44303
C          9.09271        6.93482        4.69632
B          6.43184        9.63348        3.54159
C          5.61068       10.10195        4.90085
C          6.37829       10.22922        6.21507
S          7.67387       11.53107        6.15120
C          8.16473       11.50008        7.89812
F          5.43755        9.48219        2.47905
C          8.66719        3.41905        6.37902
C         11.21259        4.26473        4.89636
H          9.32578       -6.73938        0.69913
H          9.15266       -6.34828        2.42277
H         10.70649       -6.08978        1.60793
H          8.09896       -4.56258        0.96640
H          9.64209       -4.30485        0.15811
H         10.66877       -3.59298        2.34478
H          9.12444       -3.85298        3.15306
H          8.06124       -2.10315        1.68118
H          9.60872       -1.83729        0.88114
H         10.62204       -1.12499        3.07369
H          9.08021       -1.40684        3.87922
H          7.99891        0.34322        2.41934
H          9.54674        0.64118        1.63166
H         10.53777        1.33755        3.82869
H          9.00877        0.99946        4.63189
H          7.87395        2.76234        3.20432
H          9.40764        3.12857        2.43100
H          6.81419        4.84878        3.26172
H          5.70822        7.00729        2.82425
H          8.93284        9.08239        4.75564
H         10.05944        6.94493        5.21237
H          7.26160       10.50248        3.21943
H          4.80988        9.35627        5.07497
H          5.09654       11.05602        4.68542
H          6.88191        9.28041        6.46477
H          5.72116       10.49983        7.06070
H          8.96507       12.24019        8.03337
H          8.55106       10.51066        8.18550
H          7.32438       11.76196        8.55945
H          7.58199        3.24905        6.32296
H          8.84019        4.16239        7.17085
H          9.14782        2.47779        6.68590
H         11.65993        4.63377        3.96237
H         11.69174        3.30821        5.15279
H         11.46345        4.98307        5.68987
