23

C          1.06296        0.26987       -0.26271
C          2.56653        0.22220        0.03042
In         3.32354        1.57189        1.63399
S          1.59046        0.88962        3.68843
O          0.85433       -0.37111        3.42007
O          2.19547        1.02825        5.03629
C          0.12954        2.17318        3.77943
F         -0.50595        2.27619        2.57878
F         -0.79765        1.81293        4.70172
F          0.57183        3.41628        4.10566
C          5.14219        0.74764        2.61999
C          5.67866        1.51767        3.83094
H          0.76651       -0.42676       -1.06956
H          0.73735        1.27575       -0.57018
H          0.47859        0.00099        0.62887
H          3.14855        0.45205       -0.87860
H          2.86158       -0.79350        0.33790
H          3.09348        3.31759        1.50774
H          5.91517        0.65281        1.83806
H          4.87373       -0.28071        2.90938
H          5.96428        2.54762        3.56417
H          6.57182        1.03966        4.27642
H          4.91759        1.58703        4.62165
