11

O          1.11845       -0.00320       -0.02645
C          2.36772       -0.03146       -0.20079
O          3.05786       -0.20785       -1.22592
C          3.08987        0.20656        1.16369
O          4.57580        0.18320        1.02966
C          5.27040        0.37354        2.12559
F          5.05620        1.59326        2.74723
F          5.05491       -0.56404        3.12288
F          6.60205        0.32254        1.83815
H          2.80724       -0.58186        1.87324
H          2.80721        1.18873        1.56433
