41

O          1.18889        0.45712       -0.09086
C          2.43006        0.33013        0.03169
O          3.25385        0.80498        0.83023
C          3.03008       -0.60420       -1.13555
C          2.63070       -2.08244       -0.91563
C          1.11649       -2.51085       -0.78563
F          0.33126       -1.98819       -1.74808
F          1.05060       -3.87346       -0.92306
F          0.60259       -2.22132        0.41397
F          3.15362       -2.87914       -1.92884
F          3.21608       -2.52549        0.24206
C          2.72476        0.03296       -2.48133
C          3.00402        1.40979       -2.58335
C          2.82792        2.08954       -3.78209
C          2.35701        1.43350       -4.93990
C          2.08058        0.06154       -4.82862
C          2.26949       -0.63051       -3.62859
Si         2.09590        2.40671       -6.51875
C          0.91026        3.85398       -6.15749
C         -0.40638        3.41632       -5.50465
C         -1.38804        4.54849       -5.29211
F         -0.88961        5.53861       -4.50026
F         -1.75707        5.14485       -6.46985
F         -2.54064        4.11657       -4.70423
C          3.72169        3.14919       -7.13400
C          1.34470        1.32544       -7.87629
F          4.45268       -0.66627       -1.06658
H          3.35668        1.93922       -1.69676
H          3.05302        3.16010       -3.81060
H          1.71297       -0.49715       -5.69313
H          2.05668       -1.69649       -3.60451
H          0.71387        4.38502       -7.10311
H          1.43049        4.56835       -5.50010
H         -0.22520        2.95780       -4.52104
H         -0.93391        2.66651       -6.11371
H          4.18962        3.75978       -6.34897
H          3.56601        3.78660       -8.01676
H          4.43058        2.35378       -7.40327
H          0.38415        0.88885       -7.56853
H          2.01782        0.49705       -8.13852
H          1.17134        1.91914       -8.78552
