34

N          0.68636       -0.04093       -4.57096
C          2.15529        0.00746       -4.70361
C          2.83243       -0.80584       -3.60383
C          4.36205       -0.78916       -3.69092
C          5.02441       -1.52537       -2.52102
C          6.56604       -1.52389       -2.45642
C          7.19356       -0.08945       -2.50433
C          6.50966        0.89795       -1.53088
C          7.03468        2.33475       -1.62785
C          8.71059       -0.13669       -2.25936
C          7.00696       -2.28953       -1.12801
O          6.54063       -1.81045       -0.06153
O          7.77067       -3.27441       -1.29778
S          7.26939       -2.58013       -3.81191
H          0.24883        0.58436       -5.24977
H          0.42205        0.31254       -3.64868
H          2.56210        1.03925       -4.68305
H          2.41640       -0.41430       -5.68834
H          2.45972       -1.84261       -3.64142
H          2.52205       -0.40293       -2.62171
H          4.70419        0.25952       -3.72423
H          4.67528       -1.24737       -4.64486
H          4.69826       -2.57778       -2.53244
H          4.66978       -1.10749       -1.56422
H          7.03458        0.29640       -3.53116
H          6.62361        0.50211       -0.51057
H          5.42662        0.91705       -1.72632
H          8.08349        2.41524       -1.30940
H          6.44619        3.01026       -0.98771
H          6.97280        2.71963       -2.65978
H          8.92055       -0.39577       -1.21079
H          9.18320        0.83120       -2.48172
H          9.17352       -0.90238       -2.89451
H          6.81128       -1.80302       -4.84159
