34

O          2.95046        1.63237       -1.57599
Al         3.16845        0.45697       -0.27555
C          4.09663       -1.15670       -1.04235
C          4.69956       -1.13255       -2.31785
C          5.34030       -2.25067       -2.85907
C          5.41662       -3.46639       -2.14704
C          4.80837       -3.50641       -0.87632
C          4.16551       -2.38176       -0.34912
Si         6.34553       -4.92450       -2.86051
C          8.19472       -4.45581       -2.98522
C          9.09300       -5.52771       -3.61017
C         10.55108       -5.13395       -3.71366
F         11.11315       -4.87271       -2.50021
F         11.30110       -6.13169       -4.28124
F         10.74194       -4.02505       -4.48275
C          6.18203       -6.46138       -1.76494
C          5.72813       -5.35432       -4.60158
I          4.76459        1.61454        1.53932
H          3.00560        2.55683       -1.30558
H          1.83936        0.03176        0.55000
H          4.66295       -0.20729       -2.90140
H          5.79249       -2.17195       -3.85492
H          4.83678       -4.42909       -0.28741
H          3.70496       -2.46239        0.64162
H          8.54518       -4.20989       -1.97052
H          8.26154       -3.52178       -3.56539
H          8.77183       -5.77613       -4.63293
H          9.07032       -6.46235       -3.02949
H          6.57202       -6.27892       -0.75349
H          6.73122       -7.31511       -2.18896
H          5.12912       -6.76186       -1.66709
H          5.81083       -4.49095       -5.27720
H          4.66789       -5.64307       -4.56629
H          6.28822       -6.18992       -5.04772
