38

C          1.39269       -4.66185       -2.39935
C          2.90552       -4.58917       -2.17198
C          3.47552       -3.17116       -2.29039
C          4.99714       -3.09115       -2.08096
C          5.59023       -1.68508       -2.16408
Ta         7.72803       -1.26182       -2.13238
C          9.00028       -0.35213       -0.48205
C          9.69964       -1.11684        0.67680
F         10.61482       -2.01315        0.23295
F         10.38415       -0.26494        1.51553
F          8.81979       -1.78296        1.46496
F         10.06852        0.37674       -1.05651
F          8.22500        0.60800        0.21766
C          8.26984       -2.23678       -4.05918
C          7.34480       -2.03179       -5.26752
S          7.26881       -0.26337       -5.74005
C          6.10974       -0.37224       -7.13258
H          1.01063       -5.68894       -2.29554
H          1.12540       -4.30692       -3.40691
H          0.85280       -4.03038       -1.67677
H          3.41802       -5.24738       -2.89501
H          3.14839       -4.99262       -1.17394
H          2.97600       -2.51348       -1.55625
H          3.22350       -2.75841       -3.28449
H          5.48104       -3.74935       -2.82695
H          5.25205       -3.52278       -1.09844
H          5.16380       -1.03965       -1.36965
H          5.30664       -1.20032       -3.13046
H          9.09184       -2.33405       -1.79604
H          7.80347        0.52798       -2.32415
H          7.43867       -2.17447       -0.64722
H          8.28868       -3.31775       -3.82544
H          9.31033       -1.98338       -4.33012
H          6.31656       -2.35783       -5.03576
H          7.67606       -2.59012       -6.16361
H          6.01089        0.63565       -7.55719
H          5.11817       -0.71615       -6.80406
H          6.48893       -1.04838       -7.91351
