41

C          0.87817       -0.78575       -0.24806
C          2.26652       -0.24963        0.14753
C          3.06387       -1.16020        1.08611
In         5.06695       -0.39796        1.80634
C          6.21110        0.49985        0.05693
C          5.58388        1.67452       -0.69498
C          6.53417        2.25109       -1.75171
S          5.93982        3.74796       -2.66406
C          6.26140       -2.29173        2.26640
C          7.73014       -2.12376        2.03546
O          8.48883       -3.33666        2.38230
C          9.87691       -3.17012        2.21080
C         10.56111       -4.37960        2.83258
O         11.97656       -4.22651        2.71588
C         12.68020       -5.25795        3.37315
H          0.33737       -0.09743       -0.92097
H          0.25111       -0.94283        0.64422
H          0.96190       -1.75819       -0.75952
H          2.13586        0.74674        0.60631
H          2.84600       -0.06840       -0.77473
H          3.26418       -2.12543        0.58618
H          2.45701       -1.39946        1.97783
H          4.97423        0.73114        3.18688
H          6.40888       -0.33230       -0.64240
H          7.19285        0.80059        0.46474
H          5.29335        2.48416       -0.00503
H          4.65181        1.35698       -1.19433
H          6.81776        1.48580       -2.48867
H          7.46239        2.60173       -1.27474
H          4.80288        3.19522       -3.14881
H          5.85371       -3.07632        1.60871
H          6.06522       -2.58590        3.30888
H          8.15267       -1.30157        2.64766
H          7.95173       -1.88984        0.97552
H         10.23978       -2.24880        2.71309
H         10.15616       -3.08543        1.13839
H         10.23105       -5.30863        2.32720
H         10.26916       -4.45614        3.89793
H         13.75248       -5.05608        3.24693
H         12.45068       -6.25453        2.94613
H         12.44639       -5.28722        4.45604
