42

C          3.75561        3.96907        2.97842
S          5.07168        2.76209        2.66504
C          4.05889        1.34174        2.11113
C          4.94221        0.13060        1.82484
Ga         5.86928       -0.77843        3.41191
C          4.36809       -1.08212        4.83194
C          3.50590       -2.09612        4.35213
C          2.36194       -2.51648        5.03265
C          2.02465       -1.92812        6.25769
C          2.84454       -0.93002        6.77063
C          3.99836       -0.50909        6.07540
C          4.78662        0.56348        6.78241
O          4.40595        1.10805        7.81030
O          5.97720        0.91406        6.25641
C          7.68426        0.06696        3.89551
C          8.68707       -0.41768        2.83849
C         10.10221        0.16575        2.96935
C         11.06832       -0.37809        1.91904
N         12.40120        0.24930        2.03249
H          4.23566        4.89480        3.32122
H          3.07395        3.61391        3.76447
H          3.18119        4.18377        2.06459
H          3.48751        1.68059        1.22626
H          3.33722        1.11573        2.91335
H          5.69081        0.38220        1.05386
H          4.30559       -0.65435        1.38278
H          6.20269       -2.29156        2.95736
H          3.75758       -2.58799        3.40707
H          1.73569       -3.30850        4.61180
H          1.13609       -2.24990        6.80583
H          2.62112       -0.44720        7.72339
H          6.14554        0.40549        5.42579
H          8.05359       -0.22978        4.89251
H          7.63658        1.16822        3.88894
H          8.30819       -0.18273        1.82669
H          8.74768       -1.51962        2.87547
H         10.50699       -0.03804        3.97447
H         10.04878        1.26622        2.87498
H         10.61153       -0.24981        0.91636
H         11.19727       -1.46317        2.06808
H         12.30319        1.25981        1.91047
H         13.00353       -0.06808        1.27053
