22

N          1.04511       -0.06310        0.02137
C          2.52885       -0.03326        0.02962
C          3.07787        0.69129       -1.19374
C          4.61214        0.71120       -1.27325
N          5.07658        1.40012       -2.40783
C          6.47943        1.35839       -2.46697
C          7.02547        2.05341       -3.71800
N          8.51101        2.10667       -3.70564
H          0.70531       -0.73616        0.71196
H          0.73782       -0.41831       -0.88772
H          2.97503       -1.04731        0.07316
H          2.84618        0.49143        0.94661
H          2.70716        1.72908       -1.21550
H          2.69966        0.20514       -2.11293
H          4.96529       -0.37580       -1.21812
H          4.99554        1.14114       -0.28318
H          6.91753        0.30884       -2.43535
H          7.00270        1.86946       -1.57408
H          6.55230        3.05275       -3.76768
H          6.70102        1.49471       -4.61134
H          8.79090        2.39327       -2.76196
H          8.83570        2.85004       -4.32672
