19

Cl         5.01310        4.41453       -1.34441
Sb         2.74905        3.24435       -0.94701
C          3.72618        1.88650        0.69169
C          3.69204        2.43650        2.14053
C          4.39577        1.58955        3.26648
C          4.07861        2.02181        4.74497
F          4.30364        3.33492        4.93983
F          2.80328        1.74792        5.08088
F          4.88353        1.33009        5.58977
F          4.03596        0.27850        3.17004
F          5.74472        1.67846        3.11523
F          4.28042        3.66660        2.15449
F          2.37533        2.58806        2.50323
F          3.01743        0.69014        0.67926
F          5.02776        1.56093        0.38974
Br         1.45085        4.57108       -2.92114
H          3.32923        2.13804       -2.13007
H          2.47077        4.59912        0.07426
H          1.25935        2.40959       -0.58851
