24

C          0.87897        0.05100        0.13800
C          2.40426        0.15269        0.05621
C          3.02730       -0.83717       -0.93265
C          4.55407       -0.76166       -1.01116
C          5.16518       -1.74046       -2.02177
C          6.70258       -1.72501       -2.02784
Al         7.65997       -2.46214       -0.41931
Br         6.99395       -4.80450       -0.15077
O          7.16488       -1.63131        1.07355
H          0.45584        0.76942        0.85649
H          0.56713       -0.95707        0.45146
H          0.41520        0.24648       -0.84152
H          2.84078       -0.01530        1.05479
H          2.69110        1.17984       -0.22868
H          2.59284       -0.66652       -1.93601
H          2.73258       -1.86324       -0.64731
H          4.99308       -0.95413       -0.01783
H          4.85480        0.26859       -1.28053
H          4.74688       -1.50810       -3.02379
H          4.81299       -2.75956       -1.77945
H          7.06025       -0.69265       -2.21367
H          7.07301       -2.31601       -2.88597
H          9.27809       -2.49721       -0.63323
H          7.33718       -2.12821        1.88313
