25

C          5.97154        2.75683        1.32693
S          5.45247        1.35611        0.29907
C          5.69163        0.00059        1.50278
C          5.15731       -1.31034        0.92935
C          5.41176       -2.52539        1.83304
C          4.85459       -2.35267        3.32224
O          3.83984       -1.59992        3.35947
O          5.40539       -3.01804        4.21983
C          4.82957       -3.81981        1.23904
C          3.30052       -3.90576        1.26404
N          2.87133       -5.18581        0.65676
Cl         7.25782       -2.79323        1.83862
H          5.87963        3.66395        0.71539
H          7.01691        2.64924        1.64867
H          5.32757        2.85418        2.21166
H          5.13703        0.23507        2.42170
H          6.76480       -0.08475        1.72533
H          5.60219       -1.50436       -0.06210
H          4.06872       -1.21464        0.80752
H          5.23302       -4.66667        1.81112
H          5.18482       -3.92628        0.19630
H          2.85921       -3.02251        0.76624
H          2.95063       -3.88389        2.30555
H          3.12883       -5.19380       -0.33328
H          1.85214       -5.24904        0.68265
