42

C          3.46790       -1.17339        3.79825
C          2.58354       -0.42465        2.79650
C          2.93210       -0.63713        1.31671
In         2.52794       -2.71612        0.49879
C          4.04176       -4.20517        1.52138
C          3.41786       -5.00844        2.56460
O          3.34486       -4.76627        3.76205
O          2.78422       -6.18496        2.12458
C          0.42590       -3.31029        1.05211
C         -0.07437       -4.62470        0.45134
C         -1.56943       -4.91070        0.68065
C         -2.02589       -6.21668        0.03154
N         -3.47166       -6.39352        0.14296
C         -4.12186       -7.44053       -0.48172
N         -3.60229       -8.45988       -1.08071
N         -5.52464       -7.31978       -0.43146
C          2.17658        0.37727        0.45041
H          3.21967       -0.89194        4.83420
H          4.53106       -0.92903        3.63878
H          3.36300       -2.26479        3.72201
H          2.64125        0.66350        3.02765
H          1.52719       -0.69817        2.97519
H          4.01665       -0.45821        1.19518
H          2.86106       -2.87548       -1.25269
H          4.80567       -3.54091        1.93609
H          4.43832       -4.79225        0.68385
H          2.87089       -6.20926        1.15675
H         -0.22591       -2.47834        0.72998
H          0.36270       -3.34934        2.15221
H          0.50467       -5.46433        0.87299
H          0.11133       -4.63949       -0.63830
H         -2.15870       -4.07325        0.26247
H         -1.78331       -4.93801        1.76212
H         -1.52642       -7.07001        0.51964
H         -1.71379       -6.22364       -1.03137
H         -3.99835       -5.52485        0.18138
H         -2.58640       -8.36071       -1.15249
H         -5.87663       -7.04417        0.48286
H         -5.95387       -8.18561       -0.74867
H          1.08515        0.22548        0.51469
H          2.44872        0.30142       -0.61347
H          2.36456        1.42447        0.77047
