30

S          0.96565        0.89467        0.24970
C          2.71803        0.33957        0.20548
C          2.98777       -0.30636       -1.15354
C          4.44595       -0.78975       -1.21782
C          4.98122       -1.62345       -2.40838
C          4.78898       -3.12944       -2.29317
C          3.59757       -3.62113       -1.73091
C          3.33087       -4.98474       -1.63287
C          4.27951       -5.90608       -2.08017
C          5.47633       -5.43817       -2.61524
C          5.74812       -4.06564       -2.75361
C          7.11437       -3.78609       -3.38170
O          8.08441       -4.41709       -2.96396
O          7.18402       -2.98201       -4.41807
C          4.46718       -1.18208       -3.85281
O          5.25718       -1.47875       -4.80863
O          3.35423       -0.64307       -3.93196
F          6.38572       -1.37553       -2.34546
H          0.96791        1.36499        1.51963
H          2.88335       -0.37645        1.02383
H          3.37201        1.20924        0.36355
H          2.79860        0.40266       -1.96745
H          2.27103       -1.12418       -1.30979
H          4.68682       -1.35644       -0.30128
H          5.09139        0.10246       -1.20073
H          2.85160       -2.91795       -1.36704
H          2.38700       -5.32070       -1.19919
H          4.09327       -6.97934       -2.00704
H          6.24981       -6.13544       -2.93816
H          6.31907       -2.34460       -4.55091
