38

N          1.13508        0.14422       -0.74821
C          2.49626       -0.10108       -0.21215
Ga         2.71867        0.81039        1.60088
C          4.67351        1.35129        1.80476
C          5.47798        0.91406        2.87520
C          6.83998        1.20828        2.96398
C          7.45280        1.96998        1.95773
C          6.67629        2.44892        0.88848
C          5.31888        2.13892        0.82886
C          8.92052        2.25034        1.99272
C          9.38466        3.68655        2.45145
C          8.99940        4.22302        3.88395
C          9.50046        3.52003        5.20848
C         11.03983        3.31322        5.51330
C         11.99206        4.56567        5.55721
F         11.50028        5.52811        6.35991
F         13.18479        4.16775        6.05599
F         12.20372        5.08001        4.33743
F         11.08437        2.76310        6.76281
F         11.56901        2.42413        4.64226
F          9.00435        4.28012        6.22912
F          8.93812        2.29106        5.29717
F          9.46067        5.51281        3.94619
F          7.64923        4.25937        3.98110
F         10.74644        3.77046        2.34282
F          8.85284        4.59803        1.58603
F          9.60145        1.35909        2.79614
F          9.47767        2.13447        0.72747
H          1.11775        0.10484       -1.77029
H          0.84278        1.08986       -0.49052
H          3.29945        0.27390       -0.87935
H          2.65157       -1.18835       -0.10938
H          1.83576        2.16545        1.49190
H          2.32920       -0.08056        2.87667
H          5.02455        0.30560        3.66376
H          7.43260        0.83098        3.79789
H          7.14389        3.04032        0.09930
H          4.74073        2.51472       -0.02116
