40

N          2.07146       -0.49036        1.06917
C          1.80210       -0.90705       -0.32398
C          2.90379       -0.45599       -1.28781
B          4.41952       -1.04697       -1.00830
C          5.23051       -0.27395        0.17371
C          6.07049       -0.98718        1.06024
C          6.81608       -0.35925        2.06197
C          6.75699        1.03062        2.23834
C          5.94033        1.76197        1.37686
C          5.20202        1.12129        0.36779
C          5.85019        3.25440        1.50645
F          6.50596        3.74488        2.60127
F          6.37637        3.91103        0.42476
F          4.55571        3.69519        1.60937
C          7.67119       -1.14996        3.00789
F          7.83146       -2.44949        2.64175
F          8.93559       -0.62601        3.13532
F          7.16110       -1.17287        4.28524
C          5.32462       -1.02672       -2.40310
C          5.55440        0.33724       -3.06649
C          6.27836        0.25899       -4.40938
N          6.49303        1.60118       -4.99376
H          1.20640       -0.47365        1.61132
H          2.43879        0.46308        1.07496
H          0.81191       -0.54051       -0.67718
H          1.75521       -2.01096       -0.33475
H          2.87379        0.65418       -1.33754
H          2.59072       -0.78382       -2.29807
H          4.32133       -2.23634       -0.66456
H          6.12114       -2.07270        0.95650
H          7.32915        1.52266        3.02340
H          4.57491        1.73630       -0.28330
H          4.81248       -1.68719       -3.13043
H          6.31058       -1.49615       -2.22016
H          6.12978        1.00134       -2.39906
H          4.58050        0.83816       -3.23065
H          5.70660       -0.41845       -5.07683
H          7.26859       -0.20546       -4.26324
H          5.59635        2.09131       -5.03034
H          6.81094        1.52044       -5.96155
