32

N          0.92597       -0.22409        0.23246
C          2.30143        0.03502        0.00387
N          2.79675        1.08812       -0.55841
N          3.10088       -0.97288        0.48394
C          4.56059       -0.87797        0.50608
C          5.15517       -2.20596        0.96837
C          6.68010       -2.18996        1.10398
C          7.22393       -3.52876        1.62445
C          8.72884       -3.64119        1.66179
C          9.49943       -2.84378        2.60981
C          9.23384       -2.77863        4.17687
C          9.21740       -4.12687        4.96702
F         10.35954       -4.82716        4.82150
F          9.07418       -3.86736        6.30343
F          8.18220       -4.91235        4.61288
F         10.13905       -1.96905        4.86047
F          7.99215       -2.21482        4.38674
F         10.86715       -3.18688        2.55817
F          9.38458       -1.47552        2.27783
F          9.04425       -5.04182        1.91095
H          0.32337        0.39187       -0.30522
H          0.66952       -1.19820        0.08031
H          2.05134        1.67324       -0.94582
H          2.70209       -1.51926        1.24174
H          4.89110       -0.05525        1.16583
H          4.89805       -0.61868       -0.50759
H          4.84820       -3.00169        0.26734
H          4.71622       -2.47224        1.94897
H          6.97579       -1.37434        1.78146
H          7.15355       -1.96819        0.13359
H          6.88754       -4.32370        0.93507
H          6.70721       -3.75115        2.59364
