58

N          1.33651       -5.71413        3.65126
C          2.45800       -6.00464        2.83578
N          2.64632       -7.08125        2.14836
N          3.39605       -4.99800        2.86660
C          4.71060       -5.15858        2.24494
C          5.54175       -3.89627        2.46114
C          6.96784       -3.97165        1.88217
C          7.06065       -4.03031        0.35513
In         9.14512       -4.01689       -0.44625
S         10.35673       -1.93087        0.72366
O         11.77820       -1.85730        0.27651
O          9.57654       -0.66344        0.65412
C         10.49799       -2.26204        2.52902
C         10.39004       -5.63593        0.44971
C          9.82739       -6.83767        0.92400
C         10.60690       -7.84364        1.50557
C         12.00224       -7.69586        1.64499
C         12.57061       -6.49447        1.17673
C         11.78396       -5.49322        0.59594
Si        13.04114       -9.05170        2.41378
C         12.84148      -10.63866        1.36724
C         13.65428      -11.83914        1.86277
C         13.46418      -13.09875        1.04483
F         13.82201      -12.93786       -0.26010
F         14.22345      -14.13093        1.53072
F         12.17271      -13.53595        1.04800
C         14.87182       -8.57226        2.45481
C         12.47067       -9.43123        4.18088
H          0.55361       -6.33427        3.46596
H          1.04169       -4.74018        3.60319
H          1.80769       -7.66849        2.15853
H          3.39690       -4.44180        3.71703
H          4.56063       -5.35802        1.17528
H          5.23234       -6.04017        2.65981
H          5.60686       -3.70262        3.54975
H          5.01395       -3.03495        2.01716
H          7.48488       -4.83823        2.33128
H          7.50919       -3.08390        2.24470
H          6.54516       -3.16450       -0.09070
H          6.56593       -4.93223       -0.04137
H          9.37612       -3.69847       -2.15638
H         11.01152       -3.21957        2.68030
H          9.49635       -2.27523        2.97550
H         11.09290       -1.43026        2.93012
H          8.74757       -7.00340        0.84497
H         10.11342       -8.75680        1.85794
H         13.64901       -6.33065        1.26678
H         12.26996       -4.57097        0.26284
H         13.12087      -10.39391        0.33059
H         11.76984      -10.89329        1.34380
H         13.38971      -12.10630        2.89712
H         14.73398      -11.62661        1.85030
H         15.26375       -8.38619        1.44474
H         15.48148       -9.36474        2.91348
H         15.02379       -7.65727        3.04477
H         11.40799       -9.71288        4.20125
H         12.58697       -8.54159        4.81594
H         13.04736      -10.24853        4.63950
