30

N          4.27698       -3.93734        1.42353
C          5.22877       -2.85701        1.11320
Nb         3.69364       -1.94650        2.39312
C          1.54968       -2.67646        2.79804
C          0.32495       -2.24121        2.00536
O          0.24541       -2.65659        0.61621
C          0.45637       -4.02712        0.39234
C         -0.67141       -4.94387        0.85946
O         -1.83338       -4.75082        0.05066
C         -2.93903       -5.48453        0.52384
S          4.56736        0.16462        3.27149
H          4.63655       -4.73394        1.94312
H          3.69743       -4.22788        0.64478
H          5.40560       -2.70309        0.04399
H          6.18177       -3.02306        1.64256
H          2.57204       -0.63881        1.97531
H          3.73035       -3.02176        3.88581
H          2.90121       -2.07674        0.81451
H          1.43669       -2.20007        3.79388
H          1.51828       -3.76178        3.00972
H          0.30213       -1.14376        1.94107
H         -0.62215       -2.56525        2.49889
H          1.39042       -4.37083        0.87783
H          0.57431       -4.14541       -0.69805
H         -0.91452       -4.74503        1.92103
H         -0.33505       -6.00061        0.78431
H         -3.79181       -5.25529       -0.13044
H         -3.20185       -5.20664        1.56400
H         -2.75330       -6.57833        0.49916
H          5.67650       -0.36293        3.87022
