38

C          1.80604       -0.00136       -1.95610
S          3.53698       -0.09210       -1.41105
C          3.93027        1.71541       -1.24223
C          5.36368        1.95855       -0.83619
Nb         6.09931        4.04269       -0.66110
C          4.93900        5.97775       -0.86839
C          4.45249        6.79996        0.33411
C          5.60867        7.54594        0.99410
S          5.20602        8.44730        2.54065
C          8.24472        4.00132       -0.21725
C          8.91374        3.79826        1.13810
C         10.38961        4.20635        1.18745
N         10.95133        4.01927        2.54243
H          1.43149       -1.02896       -2.05238
H          1.72113        0.49847       -2.93224
H          1.18513        0.53251       -1.22230
H          3.24079        2.13078       -0.49354
H          3.70291        2.17423       -2.21730
H          6.06411        1.51419       -1.57725
H          5.58362        1.49339        0.14393
H          6.32418        4.90158        0.86800
H          6.15346        4.57099       -2.42235
H          4.72293        3.96540        0.45320
H          4.06839        5.60887       -1.44938
H          5.48664        6.63928       -1.56705
H          3.98411        6.13802        1.07805
H          3.68793        7.54899        0.03585
H          6.08086        8.25022        0.29329
H          6.36937        6.81111        1.30225
H          4.22060        9.22670        2.03228
H          8.42672        5.03950       -0.58286
H          8.69330        3.33045       -0.98490
H          8.83229        2.74526        1.45791
H          8.36358        4.38943        1.89170
H         10.47047        5.25051        0.82191
H         10.97288        3.58083        0.49079
H         10.38359        4.54949        3.20796
H         11.89029        4.41858        2.59396
