42

N          2.78038        0.58241        0.30325
C          3.05248       -0.89209        0.36537
Al         3.96702       -1.74836       -1.21657
S          1.98204       -1.49238       -2.71832
O          0.77230       -1.91357       -1.97756
O          1.93824       -0.14705       -3.34095
C          1.82678       -2.62226       -4.35349
C          2.00404       -4.16879       -4.27020
C          1.04527       -4.97072       -3.31800
C          1.02198       -6.52424       -3.58583
F          2.26539       -7.04112       -3.64340
F          0.36201       -7.13052       -2.57188
F          0.37735       -6.82784       -4.73048
F          1.43984       -4.80351       -2.03559
F         -0.23712       -4.54377       -3.45720
F          1.83130       -4.68826       -5.53915
F          3.28348       -4.43146       -3.89241
F          0.59662       -2.35173       -4.87652
F          2.76143       -2.20297       -5.25753
C          5.60246       -0.72197       -1.79189
C          6.28049       -1.05268       -3.12104
O          5.46771       -0.82093       -4.27987
C          5.28731        0.55437       -4.57483
C          4.36281        0.64995       -5.78041
O          4.39268        1.99903       -6.25489
C          3.41718        2.22366       -7.25195
H          2.06585        0.73899       -0.41275
H          3.60804        1.05440       -0.07021
H          2.09409       -1.39314        0.57254
H          3.66561       -1.07743        1.26845
H          4.18264       -3.35417       -1.20189
H          6.32628       -0.98135       -0.99227
H          5.45991        0.36817       -1.69544
H          6.52366       -2.12616       -3.16433
H          7.23311       -0.49215       -3.25305
H          6.26203        1.03205       -4.81100
H          4.83463        1.09816       -3.72740
H          3.33958        0.36363       -5.48575
H          4.70804       -0.04383       -6.57229
H          3.49977        3.27516       -7.55997
H          2.39500        2.03614       -6.87237
H          3.57972        1.57770       -8.13792
