33

C          0.72253       -0.23072       -0.06050
O          2.13040       -0.13372       -0.00747
C          2.71369       -1.20728        0.72850
C          4.22556       -1.03220        0.75489
O          4.74055       -2.07203        1.55965
C          6.18518       -2.03612        1.67602
C          6.70811       -3.13433        2.54438
As         8.81448       -3.35588        2.44090
C          9.22850       -1.53726        3.32196
C          9.82033       -0.54105        2.31066
C          9.54559        0.90697        2.64075
O         10.36138        1.73775        2.98470
O          8.22410        1.28662        2.53291
F          8.50595       -5.04825        1.56602
H          0.35562        0.63288       -0.63069
H          0.27128       -0.21067        0.95107
H          0.39287       -1.16021       -0.56506
H          2.45654       -2.17932        0.26420
H          2.32734       -1.21949        1.76643
H          4.47927       -0.03402        1.17074
H          4.63403       -1.07253       -0.27578
H          6.45464       -1.03333        2.08499
H          6.62575       -2.09725        0.65905
H          6.33409       -4.11222        2.21857
H          6.48451       -2.97728        3.60997
H          8.79045       -2.69157        0.97440
H         10.36606       -3.67544        2.29123
H          8.74450       -4.10281        3.83664
H          9.92985       -1.71935        4.14752
H          8.28848       -1.16530        3.75788
H          9.39549       -0.76122        1.30907
H         10.90700       -0.66572        2.23226
H          7.69700        0.50725        2.26897
