34

C          0.77312       -0.86389       -0.14194
C          2.29263       -0.74344       -0.29221
C          3.06437       -1.41185        0.85024
C          4.59591       -1.34861        0.71664
C          5.32582       -2.01757        1.86921
Sb         7.58550       -2.09752        1.73198
C          7.67682        0.15086        2.61140
F          6.45075        0.72923        2.93272
F          8.42373        0.27651        3.77937
F          8.26078        1.05140        1.73618
C          7.56597       -2.83100        3.93102
C          8.11032       -4.24113        4.06346
C          8.09999       -4.87703        5.45510
O          8.45734       -6.01171        5.70321
O          7.64355       -4.06929        6.45545
H          0.23661       -0.38203       -0.97315
H          0.42843       -0.39619        0.79322
H          0.46198       -1.91974       -0.11204
H          2.57508        0.32157       -0.34782
H          2.60443       -1.19011       -1.25183
H          2.75512       -2.47029        0.92445
H          2.76904       -0.94589        1.80746
H          4.90693       -0.29129        0.64741
H          4.89199       -1.81217       -0.24234
H          5.03538       -3.07683        1.97035
H          5.10905       -1.50658        2.81903
H          7.58502       -1.37843        0.10005
H          7.57932       -3.78117        1.12261
H          9.36827       -2.04584        1.82292
H          6.51118       -2.75149        4.23764
H          8.17184       -2.08033        4.45882
H          9.15750       -4.29018        3.71766
H          7.56872       -4.94465        3.40880
H          7.41258       -3.21795        6.01417
