26

C          0.89701        0.14136       -0.08379
Ga         2.87538        0.46851       -0.09511
C          3.88040       -0.83565       -1.40637
C          4.47317       -2.18824       -0.92904
C          3.41819       -3.24390       -0.45344
C          3.99272       -4.45706        0.36284
F          4.99460       -5.07345       -0.29615
F          4.43888       -4.08049        1.57309
F          3.00090       -5.36476        0.55253
F          2.49208       -2.65266        0.35148
F          2.77629       -3.77120       -1.53300
F          5.21368       -2.80163       -1.91743
F          5.32443       -1.94402        0.11398
F          3.05651       -1.15651       -2.50004
F          4.98085       -0.18036       -1.96218
C          3.75007        0.63468        1.75470
C          5.11952        1.23308        1.74511
O          6.08427        0.83304        2.37715
O          5.26480        2.34634        0.95102
H          0.54856       -0.12744       -1.09129
H          0.37811        1.06382        0.21637
H          0.59950       -0.65965        0.60665
H          3.24393        1.90854       -0.77182
H          3.75825       -0.27893        2.35962
H          3.06512        1.35947        2.22682
H          4.49187        2.36966        0.32923
