61

S          2.77135        2.03690       -1.72017
In         4.06432        0.96109        0.15339
C          2.62636        0.31623        1.88534
C          1.08122        0.33638        1.75347
C          0.48143       -0.73188        0.77005
C         -0.97652       -0.42868        0.26365
F         -1.81313       -0.17446        1.29406
F         -1.00852        0.60925       -0.58503
F         -1.45071       -1.51762       -0.39275
F          1.25913       -0.85666       -0.33637
F          0.43002       -1.94268        1.39571
F          0.45964        0.12622        2.96855
F          0.69951        1.58060        1.32972
F          2.94338       -0.98143        2.32636
F          2.87567        1.13997        2.98972
C          4.76374       -0.92910       -0.77180
C          4.79901       -1.02967       -2.17494
C          5.22843       -2.19303       -2.82063
C          5.64458       -3.32320       -2.08893
C          5.59883       -3.23237       -0.68332
C          5.16872       -2.06407       -0.04446
Si         6.34675       -4.82412       -2.95758
C          8.21980       -4.50466       -3.17552
C          8.99803       -5.59960       -3.91213
C         10.45107       -5.28988       -4.23942
C         11.47674       -5.05033       -3.07062
C         11.63351       -6.13342       -1.93572
C         12.15465       -7.59305       -2.25868
C         13.56935       -7.75077       -2.93345
C         14.18726       -9.19526       -2.79920
F         14.58450       -9.44462       -1.53997
F         13.30232      -10.13822       -3.17479
F         15.26554       -9.27514       -3.60503
F         13.46812       -7.48166       -4.25608
F         14.45497       -6.88991       -2.36892
F         12.20409       -8.22948       -1.05156
F         11.23475       -8.22673       -3.02891
F         12.47362       -5.60657       -1.00585
F         10.41644       -6.31046       -1.34566
F         12.71462       -4.85602       -3.61395
F         11.12631       -3.90550       -2.42330
F         10.97530       -6.30998       -5.01118
F         10.53267       -4.14941       -5.00504
C          6.11116       -6.40430       -1.94201
C          5.56543       -5.06756       -4.66518
H          3.23421        3.27394       -1.43151
H          5.20694        2.06772        0.89302
H          4.47427       -0.17616       -2.77905
H          5.23498       -2.21639       -3.91545
H          5.90057       -4.08802       -0.07000
H          5.14077       -2.05115        1.04870
H          8.62961       -4.33779       -2.16847
H          8.32150       -3.54617       -3.70756
H          8.55152       -5.79475       -4.90093
H          8.97310       -6.55301       -3.36590
H          6.57726       -6.32190       -0.94983
H          6.54925       -7.27846       -2.44635
H          5.04179       -6.60823       -1.78956
H          5.72905       -4.19643       -5.31507
H          4.47963       -5.21057       -4.57062
H          5.97452       -5.95094       -5.17775
