55

C          1.11236        0.02520        2.40221
C          2.35485       -0.46014        1.63893
C          3.54405        0.50851        1.67952
Al         5.26502       -0.01878        0.73624
C          4.96334       -0.51560       -1.21258
C          5.68868        0.15052       -2.22388
C          5.51269       -0.11924       -3.58642
C          4.59136       -1.08464       -4.01648
C          3.85638       -1.76356       -3.03318
C          4.04319       -1.48284       -1.67448
C          4.41341       -1.39989       -5.48278
C          6.14265       -1.57413        1.73807
C          5.68467       -2.91082        1.72020
C          6.29479       -3.93418        2.44726
C          7.41881       -3.64967        3.24052
C          7.90916       -2.33617        3.28616
C          7.27443       -1.33452        2.54786
C          8.07213       -4.74252        4.02933
C          8.97061       -5.77199        3.24071
C         10.22880       -5.26732        2.43638
C         11.48372       -4.63414        3.17032
C         12.21447       -5.47887        4.28091
C         13.67123       -4.97719        4.61697
F         13.68792       -3.65662        4.87533
F         14.10572       -5.63234        5.71529
F         14.52717       -5.23669        3.61287
F         11.50232       -5.42381        5.43148
F         12.33244       -6.77555        3.89087
F         12.39443       -4.40258        2.17604
F         11.13767       -3.43976        3.70463
F         10.69715       -6.34914        1.74382
F          9.82934       -4.33652        1.53686
F          9.41483       -6.73642        4.10588
F          8.18152       -6.38803        2.31458
F          8.86329       -4.24934        5.04521
F          7.12294       -5.55279        4.63357
H          0.27093       -0.68580        2.33637
H          0.76807        0.99351        2.00444
H          1.34411        0.17634        3.46854
H          2.06852       -0.64994        0.58955
H          2.65447       -1.44207        2.04778
H          3.80224        0.72030        2.73592
H          3.22831        1.48324        1.25810
H          6.34979        1.21681        0.78783
H          6.41555        0.91663       -1.93335
H          6.09649        0.43124       -4.33248
H          3.12377       -2.51849       -3.33926
H          3.43434       -2.03976       -0.95421
H          4.67990       -0.53854       -6.11257
H          3.37446       -1.68021       -5.71141
H          5.05233       -2.24234       -5.79684
H          4.81417       -3.17458        1.11116
H          5.89781       -4.95029        2.41050
H          8.77698       -2.10141        3.90433
H          7.67862       -0.31844        2.60025
