47

O          0.75898        0.61939       -0.02927
C          2.08428        0.21640        0.00754
O          2.34047       -0.88494        0.44298
C          3.04782        1.24107       -0.52512
C          4.52495        0.88644       -0.37574
C          5.47917        1.94833       -0.98136
C          5.14771        2.16959       -2.46082
C          4.93619        3.45048       -3.00131
C          4.60870        3.61690       -4.34715
C          4.47800        2.52126       -5.22417
C          4.69271        1.24160       -4.68116
C          5.02290        1.07444       -3.33569
Si         4.00135        2.81186       -7.00994
C          2.34455        3.75578       -7.05546
C          1.25045        3.08893       -6.21345
C         -0.09020        3.78706       -6.27890
F         -0.03298        5.08187       -5.85809
F         -0.60362        3.81470       -7.54814
F         -1.02338        3.16334       -5.50122
C          5.28715        3.88063       -7.89070
C          3.78934        1.18105       -7.94530
C          5.39961        3.34006       -0.18599
O          6.33120        4.14554       -0.43742
O          4.41574        3.49895        0.58818
C          6.92827        1.42742       -0.87282
H          0.74209        1.53800       -0.35191
H          2.91333        2.21070       -0.00410
H          2.78999        1.41645       -1.58581
H          4.71911       -0.10615       -0.81533
H          4.75737        0.80272        0.69563
H          5.05195        4.31584       -2.34753
H          4.44930        4.63475       -4.71812
H          4.60011        0.35311       -5.31175
H          5.17449        0.06197       -2.95537
H          2.02147        3.85014       -8.10476
H          2.52240        4.77897       -6.68843
H          1.54234        3.05347       -5.15325
H          1.06960        2.05001       -6.52834
H          5.43799        4.82611       -7.35065
H          4.98092        4.11818       -8.92004
H          6.25556        3.36252       -7.92940
H          3.02819        0.53769       -7.48196
H          4.73125        0.61549       -7.97152
H          3.48289        1.37368       -8.98371
H          7.07225        0.49911       -1.44990
H          7.17294        1.21791        0.17959
H          7.61976        2.19769       -1.23392
