43

N          9.70816        0.99936       -3.38397
C          9.35643        1.11306       -2.06696
O          9.97688        1.84697       -1.29256
C          8.16332        0.25903       -1.63469
C          7.35933       -0.49068       -2.70127
Al         5.76737       -1.51442       -1.99163
C          4.69105       -2.24061       -3.54094
C          4.82391       -3.54507       -4.05939
C          4.10357       -3.98331       -5.17487
C          3.19604       -3.13348       -5.84061
C          3.04409       -1.82957       -5.32604
C          3.77167       -1.40489       -4.21043
Si         2.27877       -3.68186       -7.37699
C          1.96668       -5.56356       -7.28569
C          1.19620       -6.13059       -8.48239
C          0.98348       -7.62838       -8.42694
F          0.27344       -8.01861       -7.33110
F          0.28859       -8.07725       -9.51937
F          2.15591       -8.32332       -8.40330
C          0.60996       -2.79726       -7.53127
C          3.29402       -3.32231       -8.93879
Br         6.62583       -3.37899       -0.73638
H         10.46194        1.57207       -3.74042
H          9.13493        0.44427       -4.00888
H          7.51605        0.93687       -1.05395
H          8.56285       -0.44839       -0.88741
H          7.99612       -1.21731       -3.23779
H          6.96535        0.21570       -3.45669
H          4.83860       -0.58875       -1.02930
H          5.50697       -4.24373       -3.56543
H          4.25107       -5.00985       -5.52668
H          2.34232       -1.13373       -5.79839
H          3.60719       -0.38505       -3.84356
H          1.42372       -5.77472       -6.35130
H          2.94030       -6.07071       -7.19831
H          1.71862       -5.93189       -9.43060
H          0.19470       -5.68195       -8.56592
H         -0.04009       -3.02722       -6.67497
H          0.08114       -3.08637       -8.45164
H          0.74351       -1.70655       -7.56096
H          4.26117       -3.84382       -8.90237
H          3.50502       -2.24576       -9.01137
H          2.77452       -3.62470       -9.86067
