34

N          2.25105        2.09347       -0.07531
C          3.37539        1.18183       -0.21902
As         3.10999       -0.55628        0.90843
C          2.61673       -2.18820        2.10571
C          1.11829       -2.45921        2.15712
C          0.64563       -3.20221        0.90001
C          0.68689       -3.21356        3.42545
C          5.15002       -0.67076        1.51324
C          5.47629        0.20135        2.71161
C          6.91897        0.26704        3.21615
O          7.28248        0.99928        4.14112
N          7.79512       -0.56391        2.57284
H          1.39746        1.53944       -0.23864
H          2.18931        2.34649        0.91849
H          4.30425        1.67893        0.10090
H          3.47192        0.84965       -1.26530
H          2.73769        0.44937        2.18892
H          1.53541       -0.44572        0.40778
H          3.51833       -1.54196       -0.34972
H          3.01087       -1.92541        3.10036
H          3.17669       -3.05083        1.70678
H          0.61017       -1.47233        2.16309
H          1.10336       -4.20477        0.84948
H          0.93438       -2.64860       -0.00397
H         -0.44969       -3.32812        0.89311
H          1.15717       -4.21016        3.46959
H         -0.40749       -3.35909        3.45785
H          0.98396       -2.66541        4.33214
H          5.69601       -0.36478        0.60624
H          5.33159       -1.74103        1.69942
H          4.86708       -0.09249        3.58401
H          5.17903        1.24789        2.52687
H          7.47153       -1.09783        1.77263
H          8.77624       -0.52779        2.81785
