29

C          1.88142       -0.22579       -0.70354
S          3.28118       -1.08132       -1.48538
C          3.93419       -2.01354       -0.04139
C          5.19079       -2.77765       -0.38204
As         6.05953       -3.55685        1.35376
C          5.16780       -5.48464        0.96700
F          5.56272       -6.04538       -0.23181
F          5.44828       -6.43543        1.91954
F          3.78762       -5.42962        0.90526
C          6.92176       -1.79332        1.99667
C          6.50443       -1.47427        3.43882
C          7.52778       -1.84579        4.50106
O          7.97902       -1.05360        5.31360
O          7.92311       -3.13638        4.51659
H          1.40237        0.39593       -1.47125
H          2.21986        0.42204        0.11814
H          1.14296       -0.94310       -0.31764
H          3.14645       -2.69672        0.31088
H          4.12093       -1.28110        0.76289
H          5.96707       -2.13022       -0.81595
H          4.99735       -3.61122       -1.06991
H          4.74070       -3.21513        2.22620
H          7.33263       -4.02791        0.52374
H          6.70158       -4.27418        2.73492
H          6.60922       -0.98990        1.31504
H          8.00682       -1.93486        1.88972
H          5.56865       -2.03669        3.66165
H          6.27529       -0.41042        3.58318
H          7.42791       -3.65323        3.79314
