47

C          3.48482       -0.88386       -4.26859
C          3.92917       -0.49240       -2.85702
C          4.63169        0.86683       -2.79665
C          5.06243        1.28706       -1.38874
C          5.79059        2.63863       -1.33678
C          6.19894        3.09095        0.06742
Ga         7.29705        4.79662        0.16838
C          6.09483        6.45766        0.26191
C          4.75995        6.28372       -0.16387
C          3.79933        7.29701       -0.10562
C          4.15384        8.55996        0.38043
C          5.46441        8.78049        0.79441
C          6.42394        7.74899        0.75101
C          7.78716        8.16246        1.26431
O          8.12588        9.33931        1.32015
O          8.63566        7.21599        1.69919
C          8.83136        4.88927       -1.16678
C         10.08843        4.18027       -0.64943
C         11.28780        4.24377       -1.59744
N         12.46647        3.56139       -1.01829
H          2.98650       -1.86425       -4.28628
H          4.34426       -0.93222       -4.95458
H          2.78114       -0.14350       -4.67929
H          4.60485       -1.26645       -2.45423
H          3.05350       -0.47689       -2.18569
H          3.96310        1.63975       -3.21692
H          5.51755        0.84640       -3.45687
H          5.71996        0.51080       -0.95698
H          4.17572        1.33017       -0.73062
H          5.14402        3.40126       -1.80913
H          6.68475        2.57752       -1.98344
H          6.81057        2.30222        0.54058
H          5.30391        3.19971        0.70491
H          8.01761        4.81662        1.65892
H          4.45329        5.30489       -0.54528
H          2.77519        7.10215       -0.43625
H          3.41617        9.36369        0.43757
H          5.78096        9.75592        1.16799
H          8.26108        6.27401        1.65183
H          9.05882        5.94919       -1.36991
H          8.51688        4.44632       -2.12829
H          9.87874        3.11916       -0.42864
H         10.38574        4.62847        0.31658
H         11.47965        5.30663       -1.84820
H         11.03647        3.73409       -2.54300
H         12.67194        3.98060       -0.10812
H         13.29181        3.73152       -1.59638
