48

F          6.67870        6.39987        0.13928
C          6.74161        5.06407        0.40622
C          5.37762        4.44956        0.63215
C          4.43572        4.58164       -0.57004
Si         2.72470        3.77764       -0.30291
C          1.98692        4.44832        1.28825
C          1.69919        5.82230        1.41627
C          1.20965        6.34789        2.61502
C          0.98918        5.53997        3.75100
C          1.26544        4.16506        3.61048
C          1.75053        3.63228        2.41180
Al         0.40949        6.40807        5.44764
S         -0.98822        4.82186        6.68896
O         -0.76363        3.42001        6.28487
O         -1.02615        5.12801        8.12891
C         -2.88790        5.14507        6.23539
C         -3.30847        4.78427        4.78663
C         -4.71946        5.29231        4.32029
F         -5.68389        4.89320        5.17758
F         -4.76208        6.63407        4.22284
F         -5.00907        4.77893        3.10001
F         -2.39691        5.32138        3.92130
F         -3.31348        3.43344        4.63798
F         -3.63099        4.41598        7.10978
F         -3.14519        6.46974        6.45201
C          1.99866        6.60779        6.74574
F          2.99105        7.38842        6.14568
F          1.73417        7.24249        7.93827
F          2.64302        5.43614        7.09371
C          1.66319        4.22487       -1.80358
C          2.92985        1.89975       -0.21295
F          7.40459        4.49061       -0.64548
F          7.54998        4.91885        1.49548
H          4.95125        4.93449        1.52280
H          5.55626        3.39596        0.89523
H          4.89796        4.13853       -1.46701
H          4.27557        5.64823       -0.79511
H          1.85953        6.49827        0.56915
H          0.99704        7.42094        2.66412
H          1.08697        3.49085        4.45195
H          1.94844        2.55787        2.35575
H         -0.44175        7.75934        5.31487
H          1.50818        5.31134       -1.86750
H          0.67311        3.75263       -1.73533
H          2.13568        3.89509       -2.74070
H          3.56910        1.59314        0.62704
H          3.38368        1.51544       -1.13809
H          1.95745        1.40349       -0.08452
