30

C          5.55877       -1.51875       -1.24283
C          4.47105       -0.77810       -0.45459
C          3.22576       -0.48444       -1.30914
In         1.81273       -2.06055       -2.09586
C          0.87598       -3.30472       -0.48890
C          0.51258       -2.73573        0.74547
C         -0.13157       -3.47216        1.74944
C         -0.44672       -4.82386        1.56054
C         -0.07534       -5.41207        0.34064
C          0.57105       -4.66959       -0.65425
C         -1.17137       -5.61657        2.62358
I          3.17112       -4.02921       -3.74313
C          4.13971       -1.53228        0.84004
H          5.85004       -0.95408       -2.14142
H          5.20202       -2.50364       -1.58009
H          6.46210       -1.66738       -0.62800
H          4.91014        0.19593       -0.14670
H          3.52255        0.08824       -2.20328
H          2.54718        0.17841       -0.74078
H          0.64738       -1.32599       -3.20918
H          0.73923       -1.68385        0.95021
H         -0.39369       -2.98946        2.69751
H         -0.29688       -6.47119        0.16857
H          0.85587       -5.17222       -1.58403
H         -1.28465       -5.03194        3.54778
H         -0.63709       -6.54578        2.87619
H         -2.18093       -5.90902        2.29118
H          3.73073       -2.52991        0.62106
H          3.38865       -0.99273        1.43719
H          5.03870       -1.66037        1.46555
