21

C          1.18494        0.23432        0.20338
S          2.96932        0.56148        0.22888
C          3.36795        0.25468       -1.53440
C          4.84484        0.54184       -1.81176
B          5.27381        0.23136       -3.34005
S          4.68655        1.59373       -4.57273
O          5.16706        1.48521       -5.93524
O          3.26717        1.84782       -4.35986
F          5.41962        2.96253       -3.98515
S          7.16683       -0.11453       -3.46459
O          7.51498       -1.18133       -2.53767
O          7.73246       -0.14158       -4.79843
F          7.82655        1.24107       -2.76752
H          0.80973        0.38773        1.22392
H          0.97232       -0.80158       -0.09831
H          0.66291        0.92453       -0.47421
H          2.72234        0.89644       -2.14945
H          3.13058       -0.79681       -1.76032
H          5.46358       -0.09733       -1.16044
H          5.08048        1.58291       -1.53912
H          4.80609       -0.77332       -3.83613
