47

C          1.61516       -0.80011        1.57837
C          2.96271       -0.39815        0.97135
C          3.46368       -1.36493       -0.10682
C          4.80561       -0.96685       -0.73164
C          5.32292       -1.93500       -1.80470
C          6.66707       -1.54899       -2.43520
B          7.27352       -2.60631       -3.55498
C          6.26852       -2.67476       -4.87176
C          6.69132       -3.57595       -6.04783
C          6.79780       -5.06313       -5.69079
C          7.22298       -5.95006       -6.86484
C          7.34884       -7.43294       -6.50239
C          8.80654       -2.17271       -4.00282
C          9.86307       -2.22017       -2.89170
C         11.28717       -1.86418       -3.34110
H          1.28125       -0.08866        2.34913
H          1.67277       -1.79547        2.04557
H          0.83201       -0.84735        0.80599
H          3.71959       -0.32567        1.77139
H          2.88385        0.61483        0.53993
H          2.70083       -1.44540       -0.90261
H          3.55049       -2.37751        0.32789
H          5.56472       -0.87678        0.06756
H          4.71389        0.04369       -1.17133
H          4.55336       -2.02788       -2.59290
H          5.41540       -2.94453       -1.36171
H          7.39317       -1.41422       -1.60796
H          6.55768       -0.54032       -2.89265
H          7.33844       -3.73469       -3.00882
H          6.14033       -1.64620       -5.27263
H          5.25052       -2.98796       -4.56228
H          7.67445       -3.24388       -6.42987
H          5.99122       -3.47581       -6.90344
H          5.82263       -5.41400       -5.30381
H          7.50567       -5.17741       -4.85419
H          8.18975       -5.58766       -7.25706
H          6.50094       -5.83472       -7.69361
H          8.08818       -7.58001       -5.70011
H          7.66152       -8.04517       -7.36304
H          6.39006       -7.83420       -6.13778
H          8.80327       -1.14706       -4.43557
H          9.16521       -2.82715       -4.82408
H          9.86430       -3.23300       -2.44903
H          9.57114       -1.54148       -2.07111
H         11.63081       -2.54826       -4.13459
H         12.01866       -1.91556       -2.51531
H         11.32480       -0.84394       -3.75730
