70

C          1.06882       -0.63825       -0.86425
C          2.43330       -1.22850       -0.47808
Ga         3.04574       -0.67251        1.37608
C          2.25134       -1.92226        2.78794
C          2.85884       -2.07654        4.04518
C          2.31985       -2.90921        5.03791
C          1.14105       -3.61891        4.80688
C          0.52024       -3.48551        3.56125
C          1.06895       -2.65401        2.57518
C         -0.77250       -4.20834        3.31544
F         -0.83082       -5.41983        3.95039
F         -1.85919       -3.50027        3.76882
F         -1.00559       -4.45091        1.99612
C          3.01139       -3.01213        6.36802
F          4.35415       -3.21640        6.24233
F          2.87182       -1.87172        7.11541
F          2.53516       -4.03202        7.14286
C          5.05232       -0.75052        1.67460
C          5.76617       -1.96502        1.72632
C          7.14024       -2.01063        1.97275
C          7.88300       -0.83021        2.18566
C          7.18080        0.38897        2.14012
C          5.80491        0.41970        1.88933
Si         9.70052       -0.94610        2.60425
C          9.88990       -1.97259        4.20290
C          8.94167       -1.49759        5.31009
C          9.18680       -2.02312        6.72148
C          8.51531       -3.37825        7.16389
C          8.85311       -4.74626        6.45349
C         10.31736       -5.33934        6.43312
C         11.09096       -5.67708        7.77098
C         10.45689       -6.69445        8.79091
F         10.07796       -7.82970        8.17597
F         11.39696       -7.00341        9.71144
F          9.40348       -6.16802        9.43049
F         12.27301       -6.22849        7.36833
F         11.36430       -4.53350        8.44154
F         10.22858       -6.50223        5.72632
F         11.12596       -4.49549        5.74345
F          8.06470       -5.69047        7.04211
F          8.47724       -4.64956        5.14973
F          8.76360       -3.55632        8.49558
F          7.17286       -3.23011        7.00349
F         10.53023       -2.10916        7.01183
F          8.66252       -1.11448        7.62179
C         10.67412       -1.83890        1.25195
C         10.46586        0.75956        2.89613
H          0.75023       -0.89731       -1.89113
H          1.07810        0.46101       -0.79310
H          0.26681       -0.97881       -0.18913
H          3.20103       -0.89832       -1.19729
H          2.40786       -2.32945       -0.54501
H          2.56743        0.82928        1.70342
H          3.78734       -1.54041        4.26086
H          0.72315       -4.26942        5.57286
H          0.55702       -2.58657        1.61259
H          5.23094       -2.90950        1.58336
H          7.64109       -2.98508        2.00870
H          7.71062        1.33160        2.31066
H          5.29444        1.38816        1.87446
H         10.93735       -1.90506        4.53406
H          9.70616       -3.02382        3.94588
H          7.89343       -1.69963        5.04593
H          9.01231       -0.40497        5.43078
H         10.22816       -2.81986        1.03558
H         11.72224       -1.99619        1.54565
H         10.66084       -1.25519        0.32082
H          9.97529        1.29726        3.71974
H         10.38663        1.38683        1.99727
H         11.53201        0.65914        3.14616
