22

S          1.09792        0.09277       -0.20801
P          3.43288        0.83732       -0.09781
S          4.23060       -1.17024        1.35357
O          4.46134       -2.46484        0.63783
O          5.37267       -0.67995        2.18521
C          2.92909       -1.56596        2.59326
C          3.69561       -0.25087       -1.61234
C          5.14496       -0.27039       -2.06954
N          5.31195       -1.23030       -3.18542
H          0.78411        0.74722        0.93247
H          3.09492        1.32445        1.21610
H          4.82987        1.19128        0.07168
H          3.08873        2.05113       -0.79198
H          2.03671       -1.91327        2.06205
H          2.70846       -0.66239        3.17497
H          3.35888       -2.34517        3.23643
H          3.01814        0.13559       -2.38867
H          3.37396       -1.26258       -1.32740
H          5.78728       -0.50772       -1.20183
H          5.44574        0.72722       -2.43290
H          5.00868       -2.14781       -2.84768
H          6.30872       -1.33449       -3.39029
