50

N          6.57144        2.36842       -0.22530
C          5.79392        1.37063       -0.99746
C          5.28423        0.23638       -0.10816
B          4.43108       -0.83518       -0.97706
S          3.13495       -1.82149        0.10762
O          2.47190       -0.95108        1.08895
O          2.28780       -2.67296       -0.73961
C          3.95223       -3.21114        1.22813
C          4.74252       -2.77872        2.49111
F          3.96658       -2.12362        3.37152
F          5.25356       -3.87176        3.13237
F          5.78744       -1.98680        2.16172
F          2.93583       -4.01369        1.65525
F          4.79658       -3.96418        0.46110
C          5.23528       -1.83659       -1.95128
C          6.58893       -2.17427       -1.74526
C          7.29781       -2.99039       -2.62562
C          6.66299       -3.50212       -3.76784
C          5.31401       -3.19192       -3.99931
C          4.62617       -2.37584       -3.10345
C          7.43396       -4.34863       -4.73524
C          7.69708       -5.85237       -4.33884
C          6.48511       -6.82608       -4.07996
C          5.48041       -7.22645       -5.23986
C          6.06170       -7.87885       -6.54981
C          4.98549       -8.62501       -7.42812
F          3.91298       -7.84545       -7.65628
F          5.54610       -8.93691       -8.61712
F          4.58028       -9.76760       -6.84679
F          6.60970       -6.91592       -7.32899
F          7.01503       -8.79599       -6.23919
F          4.63466       -8.13998       -4.67589
F          4.75025       -6.14291       -5.59410
F          7.02835       -7.99340       -3.62216
F          5.71363       -6.30715       -3.09552
F          8.47969       -6.43660       -5.29815
F          8.40785       -5.85303       -3.17456
F          6.84292       -4.37724       -5.97951
F          8.71090       -3.84336       -4.92149
H          7.03582        3.01905       -0.86293
H          7.32016        1.88348        0.27538
H          6.37357        0.94351       -1.84005
H          4.93304        1.89454       -1.44409
H          4.66438        0.66901        0.69255
H          6.15428       -0.22638        0.39342
H          3.53039       -0.27838       -1.60094
H          7.11049       -1.78102       -0.86977
H          8.34812       -3.21783       -2.43852
H          4.81099       -3.57552       -4.88705
H          3.57754       -2.14203       -3.29620
