35

F          1.14133        0.61919       -0.22810
In         3.03906        0.69310       -1.00476
C          3.85567       -1.42537       -0.36671
C          4.65431       -2.29615       -1.36654
C          6.00183       -1.70646       -1.93527
C          7.32478       -1.85022       -1.09522
F          7.66035       -3.14471       -0.91721
F          8.32955       -1.26169       -1.79638
F          7.26028       -1.25438        0.10218
F          6.27452       -2.34610       -3.11700
F          5.84769       -0.38200       -2.20649
F          4.96265       -3.54945       -0.86497
F          3.85079       -2.50316       -2.45686
F          4.66951       -1.31769        0.77790
F          2.80648       -2.25771        0.02497
C          4.13631        2.10154        0.31612
C          5.66125        2.08924        0.17722
C          6.39120        3.16440        1.00072
C          7.91163        3.16300        0.80051
C          8.63378        4.34759        1.45215
C         10.14807        4.34623        1.21834
H          2.90691        0.85786       -2.75086
H          3.83855        1.84013        1.34439
H          3.73873        3.11131        0.12019
H          5.95206        2.22403       -0.88065
H          6.05236        1.09974        0.46550
H          6.15549        3.02985        2.07173
H          5.98846        4.15651        0.72626
H          8.12970        3.16394       -0.28304
H          8.33311        2.21742        1.18648
H          8.42689        4.35381        2.53625
H          8.20402        5.28582        1.06014
H         10.61874        3.44966        1.64980
H         10.63298        5.22625        1.66655
H         10.38158        4.35046        0.14235
