44

C          0.51114        0.39241        0.89576
C          1.95718       -0.08107        0.68682
C          3.02997        0.94301        1.08551
B          4.61272        0.46503        1.02677
C          5.24629        0.41166       -0.50197
C          4.72978       -0.67942       -1.45068
C          5.59056       -0.87678       -2.69773
N          5.06049       -1.95048       -3.57092
C          5.51101        1.48481        1.97321
C          6.98320        1.09742        2.14779
C          7.78251        1.99068        3.10472
C          9.26392        1.62351        3.18428
N          9.96917        2.50068        4.11534
C         11.33340        2.44908        4.30170
N         12.17858        1.59899        3.81804
N         11.80750        3.48460        5.13362
H         -0.23155       -0.37129        0.60650
H          0.30288        1.29940        0.30450
H          0.33094        0.65039        1.95251
H          2.08165       -0.36985       -0.37045
H          2.12275       -1.00879        1.26332
H          2.80232        1.26590        2.12406
H          2.88394        1.85733        0.46845
H          4.70158       -0.68549        1.52561
H          6.34395        0.27099       -0.42520
H          5.12028        1.39811       -0.99971
H          3.69595       -0.46954       -1.77158
H          4.68654       -1.63857       -0.89816
H          6.63492       -1.06164       -2.37212
H          5.60680        0.05655       -3.28693
H          4.92660       -2.79144       -3.00385
H          5.75027       -2.19938       -4.28286
H          5.04637        1.54240        2.97869
H          5.47054        2.52224        1.57367
H          7.48736        1.10254        1.16460
H          7.03741        0.05138        2.50280
H          7.34145        1.94097        4.11577
H          7.69201        3.04339        2.77614
H          9.71196        1.68059        2.17285
H          9.37444        0.58069        3.52662
H          9.54899        3.41847        4.23332
H         11.72338        0.98654        3.13618
H         11.24001        3.62483        5.96687
H         12.78003        3.30954        5.37392
