21

F          3.61681       -1.29802       -0.22513
Al         2.67763        0.12026       -0.36856
C          3.83022        1.71292        0.09867
C          5.06902        1.97144       -0.52466
C          5.85952        3.06903       -0.16918
C          5.43683        3.95985        0.82671
C          4.21657        3.72615        1.45629
C          3.43036        2.61681        1.09554
C          3.72768        4.65426        2.53269
F          4.58410        5.68859        2.78214
F          2.52166        5.22028        2.22361
F          3.54367        4.01234        3.72759
C          7.17885        3.33834       -0.83635
F          7.50477        2.41988       -1.77962
F          7.20590        4.56253       -1.45589
F          8.21800        3.36120        0.06165
I          2.01586        0.37504       -2.90422
H          1.34738        0.10043        0.54451
H          5.42471        1.30303       -1.31146
H          6.04971        4.81704        1.10324
H          2.47869        2.45787        1.61249
