22

C          0.65403       -0.22566        1.04947
C          2.13270       -0.03290        0.78555
S          2.86456        1.35721        1.32362
O          2.19778        1.85323        2.53038
O          4.32134        1.36140        1.24143
C          2.37409        2.87103        0.18116
C          3.12504        3.19035       -1.15441
C          3.19839        2.08998       -2.26454
F          1.98404        1.57655       -2.53719
F          3.67060        2.65877       -3.41080
F          4.03505        1.10451       -1.92816
F          2.49135        4.26757       -1.74102
F          4.40182        3.57270       -0.88438
F          1.03995        2.74270       -0.12982
F          2.50231        4.02532        0.91420
C          2.80057       -1.09181        0.03443
F          2.58038       -2.35171        0.61352
F          2.29058       -1.28502       -1.26711
F          4.13990       -0.99565       -0.11969
H          0.29743        0.54862        1.73757
H          0.46107       -1.20269        1.52046
H          0.04713       -0.17190        0.12913
