43

C          0.79417       -2.16624        0.86847
C          1.88022       -1.09909        0.67209
C          2.58002       -0.76592        1.99436
Ta         1.75010        0.16638        3.73412
S          0.45816        2.21999        3.28823
O          0.88793        1.57712        1.97571
O         -0.93716        2.66367        3.41299
C          1.42063        3.91295        3.20854
C          0.70658        5.01077        2.35364
C          1.60392        6.24398        1.96578
F          2.18836        6.78334        3.05622
F          2.56404        5.91067        1.08377
F          0.83078        7.19802        1.39215
F          0.27192        4.47008        1.18303
F         -0.35671        5.50834        3.03627
F          1.54696        4.37080        4.48776
F          2.66645        3.72466        2.69886
C          1.50078       -1.78152        4.89689
C          1.38406       -1.82907        6.45570
C          0.36106       -0.81453        7.05969
C          0.26647       -0.77287        8.62771
F         -0.08016       -1.97199        9.13830
F          1.42522       -0.38593        9.19341
F         -0.68796        0.11981        8.98382
F          0.71039        0.44942        6.67099
F         -0.88868       -1.08741        6.60602
F          1.01293       -3.08549        6.88147
F          2.59971       -1.56560        7.02115
F          0.38355       -2.51004        4.43456
F          2.57429       -2.66187        4.63617
C          2.88071       -1.54628       -0.40795
H          0.03149       -1.83675        1.58720
H          1.22905       -3.10107        1.25660
H          0.29092       -2.39720       -0.08350
H          1.39118       -0.17745        0.31734
H          3.38425       -0.01138        1.82784
H          3.07589       -1.66208        2.42305
H          0.01767        0.01022        4.09950
H          3.03157       -0.10801        4.92540
H          2.76197        1.56073        4.12448
H          3.40315       -2.46668       -0.10015
H          3.64336       -0.77439       -0.58939
H          2.37171       -1.75169       -1.36375
