34

C          0.85792        0.22372        1.56106
N          1.47710       -0.50603        0.48219
C          2.40311       -1.39185        0.82538
C          3.06142       -2.15868       -0.21471
C          4.03608       -3.09055        0.04853
C          4.45965       -3.36333        1.38305
C          3.83344       -2.64039        2.42451
C          2.85144       -1.70042        2.17168
C          5.50786       -4.35372        1.65714
C          6.98699       -4.02163        1.22429
C          7.68257       -2.71652        1.76942
C          7.97644       -2.51873        3.31313
C          8.85493       -3.58999        4.06226
C          9.44432       -3.08705        5.43665
F          8.49173       -2.54152        6.21544
F          9.97030       -4.14704        6.09162
F         10.42748       -2.18543        5.25717
F          8.10947       -4.68551        4.33329
F          9.92094       -3.95382        3.29994
F          8.65399       -1.32792        3.39941
F          6.81181       -2.38111        3.98486
F          8.89963       -2.63653        1.14084
F          6.96030       -1.63200        1.40069
F          7.83562       -5.06236        1.54283
F          7.01874       -3.88646       -0.13504
F          5.59582       -4.67994        3.00234
F          5.28621       -5.57767        0.97777
H          0.12072        0.93268        1.14976
H          1.57542        0.82100        2.17130
H          0.31272       -0.42354        2.28793
H          2.74120       -1.96803       -1.24174
H          4.48460       -3.64508       -0.77858
H          4.12854       -2.83466        3.45781
H          2.39996       -1.18004        3.01706
