44

O          2.84666       -3.08675        0.84259
C          2.53843       -2.64173       -0.26634
O          2.03468       -3.10483       -1.29536
C          2.97352       -0.99094       -0.43907
C          2.64863       -0.44824       -1.86410
C          1.15296       -0.54744       -2.42908
F          0.25093       -0.83968       -1.47994
F          0.79163        0.65016       -2.96828
F          1.05758       -1.45478       -3.41476
F          3.01431        0.87996       -1.98060
F          3.44723       -1.11243       -2.75445
S          2.11461       -0.04324        0.88219
O          2.87881       -0.06576        2.10182
O          1.55011        1.19476        0.39222
F          0.83973       -0.97941        1.16616
C          4.48154       -0.83465       -0.23062
C          5.32211       -1.95101       -0.37017
C          6.70475       -1.82456       -0.26149
C          7.28002       -0.57275       -0.00268
C          6.45406        0.54695        0.15035
C          5.07192        0.41224        0.03350
C          8.77323       -0.44626        0.11757
C          9.61216       -0.55152       -1.21508
C          9.33480        0.44728       -2.40248
C          9.60599        2.00197       -2.25612
C         11.05345        2.47820       -1.86028
C         11.33488        4.00060       -2.15860
F         10.36697        4.78459       -1.64983
F         12.50708        4.33854       -1.58026
F         11.43840        4.23348       -3.47867
F         11.23936        2.29380       -0.53162
F         11.98712        1.76637       -2.54409
F          9.32770        2.52780       -3.48587
F          8.72732        2.52492       -1.36772
F         10.09777        0.01598       -3.44870
F          8.03143        0.33914       -2.76094
F         10.94039       -0.45596       -0.90874
F          9.39880       -1.79235       -1.73912
F          9.14019        0.73635        0.71503
F          9.28625       -1.46061        0.90307
H          4.88773       -2.93166       -0.55265
H          7.33448       -2.70781       -0.36412
H          6.88581        1.52310        0.36588
H          4.44830        1.29760        0.15233
