39

N          6.94481       -3.87016       -1.81816
C          6.29658       -3.75120       -0.56509
N          5.30936       -4.48690       -0.16576
N          6.74636       -2.69161        0.18025
C          6.34125       -2.46656        1.56511
C          6.59949       -1.01104        1.95874
C          6.41317       -0.72492        3.45525
C          7.43063       -1.41611        4.39096
B          8.98313       -1.07177        4.12548
S         10.17410       -2.40344        4.88141
O          9.75199       -3.70126        4.34432
O         11.59183       -2.05135        4.84246
C          9.76592       -2.53398        6.77961
C         10.87130       -3.24409        7.62328
C         10.44104       -3.66802        9.07577
F          9.92666       -2.62413        9.75706
F          9.53203       -4.66172        9.06100
F         11.52774       -4.11438        9.75138
F         11.26981       -4.38251        6.99127
F         11.93756       -2.41647        7.76274
F          9.58865       -1.27517        7.26318
F          8.59351       -3.21755        6.93421
S          9.43293        0.74092        4.65728
O          8.60861        1.25786        5.73775
O         10.84052        1.08371        4.61863
F          8.80506        1.50419        3.30056
H          6.89023       -4.81447       -2.18750
H          7.90769       -3.53755       -1.83544
H          5.07069       -5.18043       -0.87951
H          7.64253       -2.29129       -0.07575
H          6.88223       -3.15448        2.23716
H          5.27442       -2.71861        1.63821
H          5.93078       -0.36232        1.36984
H          7.62922       -0.73520        1.67404
H          5.39197       -1.02516        3.75133
H          6.46575        0.36363        3.60437
H          7.31513       -2.50935        4.31512
H          7.16301       -1.15907        5.42828
H          9.40900       -1.15431        2.99184
