34

C          0.85485        0.01454        0.11460
C          2.38502        0.01633        0.06615
C          2.94814        0.17164       -1.35015
C          4.47776        0.17368       -1.41847
C          5.03779        0.32298       -2.83524
C          6.57053        0.32650       -2.89234
N          7.04091        0.45298       -4.23827
C          8.37117        0.45090       -4.39910
C          9.36550        0.34050       -3.35565
C         10.73321        0.34587       -3.63558
C         11.24376        0.45762       -4.93693
C         10.28614        0.56769       -5.97530
C          8.92414        0.56573       -5.72861
C         12.72490        0.46255       -5.21747
H          0.47511       -0.09981        1.14085
H          0.44116       -0.80801       -0.48880
H          0.44610        0.95336       -0.28996
H          2.76883       -0.91959        0.50741
H          2.77361        0.83015        0.70222
H          2.56271        1.10855       -1.79150
H          2.55621       -0.64247       -1.98621
H          4.86037       -0.76231       -0.97188
H          4.86751        0.98948       -0.78260
H          4.66839        1.25774       -3.29185
H          4.66697       -0.49541       -3.47652
H          6.93117       -0.61130       -2.39023
H          6.93397        1.15142       -2.22193
H          9.04501        0.24888       -2.31657
H         11.44043        0.25853       -2.80021
H         10.63602        0.65608       -7.01147
H          8.21093        0.65240       -6.55332
H         13.29752        0.34968       -4.28354
H         13.06863        1.39942       -5.69549
H         13.03625       -0.35979       -5.88880
