33

S          6.88466        2.82742       -1.84944
C          6.13021        1.23947       -2.39576
C          5.52300        0.54382       -1.17609
C          4.72959       -0.70896       -1.55986
Ta         5.65561       -2.44561       -2.52543
S          3.72060       -3.57472       -3.69555
O          5.12432       -4.06632       -4.09820
O          2.72629       -4.61186       -3.36944
C          3.06638       -2.99598       -5.41962
F          2.00608       -2.16295       -5.23339
F          3.97995       -2.34124       -6.16221
F          2.63490       -4.05729       -6.13794
C          7.64367       -2.61644       -3.44117
C          7.87494       -2.89631       -4.93471
C          7.55340       -1.67742       -5.79759
S          7.80436       -1.91646       -7.59733
H          7.40768        3.19091       -3.04370
H          6.90534        0.61150       -2.85481
H          5.36068        1.45133       -3.15011
H          4.88500        1.27608       -0.64435
H          6.33791        0.26718       -0.48881
H          3.79839       -0.42480       -2.07921
H          4.42625       -1.23292       -0.62587
H          6.76543       -2.10873       -1.12305
H          4.83035       -3.76970       -1.61298
H          5.14775       -1.44528       -3.92664
H          8.03463       -3.46763       -2.83972
H          8.24624       -1.74832       -3.11156
H          7.25456       -3.74036       -5.26921
H          8.92824       -3.18410       -5.12043
H          8.13459       -0.79929       -5.47840
H          6.48920       -1.41875       -5.70081
H          9.12435       -2.21624       -7.53934
