68

C          0.69557        0.80237        0.29482
C          2.21688        0.64299        0.23649
C          2.82953        0.16901        1.55844
C          4.35058       -0.00408        1.50612
C          4.96650       -0.50451        2.81695
C          6.48601       -0.68945        2.75009
C          7.11085       -1.23180        4.04275
C          8.62978       -1.43450        3.95602
Si         9.48766       -2.08235        5.54129
C          9.27432       -0.92704        6.96339
C          9.10207       -1.36888        8.30794
C          9.02281       -0.50739        9.38495
C          9.08939        0.93671        9.24683
C          9.26778        1.37135        7.87134
C          9.36000        0.48715        6.81254
C          8.98268        1.82294       10.32394
C          8.78598        1.33298       11.73606
C         10.06353        0.85876       12.48778
C         11.10466        1.97699       12.58793
C          9.71225        0.30418       13.87295
C          8.94213        3.31326       10.09059
C          7.58095        3.77754        9.52197
C          7.40500        5.26694        9.32704
O          8.22342        6.13476        9.52793
O          6.13804        5.64143        8.89395
C          8.79657       -3.81109        5.94203
C         11.31065       -2.34552        5.03566
H          0.28467        1.14051       -0.66746
H          0.40216        1.53738        1.05932
H          0.20645       -0.14994        0.54990
H          2.67753        1.60282       -0.05281
H          2.48235       -0.07163       -0.56129
H          2.36332       -0.78908        1.85013
H          2.56967        0.88579        2.35739
H          4.81656        0.95795        1.22820
H          4.60637       -0.70814        0.69394
H          4.49521       -1.46410        3.09532
H          4.71983        0.19979        3.63051
H          6.96026        0.27601        2.49840
H          6.73140       -1.37173        1.91566
H          6.62109       -2.18835        4.29823
H          6.88290       -0.54737        4.87700
H          9.11141       -0.47789        3.68372
H          8.86897       -2.13052        3.13063
H          9.02974       -2.44326        8.51248
H          8.89873       -0.93850       10.38113
H          9.36065        2.43888        7.65677
H          9.50813        0.91198        5.81181
H          8.06314        0.49217       11.77393
H          8.33108        2.13692       12.34982
H         10.50352        0.04362       11.88719
H         10.72325        2.81537       13.19607
H         11.34286        2.36515       11.58797
H         12.03730        1.62240       13.05486
H          9.26141        1.09006       14.50311
H         10.60107       -0.07541       14.40170
H          8.98381       -0.51882       13.79987
H          9.72842        3.66011        9.39574
H          9.12226        3.85918       11.02976
H          6.76844        3.42302       10.18215
H          7.41070        3.27415        8.55331
H          5.61950        4.82769        8.76526
H          7.72307       -3.77537        6.17584
H          9.30916       -4.24540        6.81292
H          8.94144       -4.49846        5.09460
H         11.78795       -1.38483        4.79221
H         11.40958       -3.00793        4.16034
H         11.87797       -2.79005        5.86669
