35

C          4.98168        0.68822       -2.86553
C          4.48710        0.39558       -1.44641
C          5.16134        1.26732       -0.38123
C          4.68475        0.92842        1.03552
C          5.22043        1.75025        2.20464
C          4.90250        3.21283        2.19515
C          3.83453        3.71537        1.43562
C          3.43841        5.05830        1.53526
C          4.09278        5.93529        2.39613
C          5.15137        5.43715        3.16990
C          5.55231        4.10645        3.07799
C          5.87919        6.39056        4.07738
F          5.02189        7.22281        4.74760
F          6.64040        5.77321        5.01050
F          6.72201        7.22201        3.37598
C          2.32177        5.54913        0.65921
F          1.26720        4.68298        0.61721
F          1.82292        6.75423        1.05673
F          2.71869        5.71482       -0.64545
C          4.74682        1.11683        3.66555
O          5.05306        1.81433        4.65162
O          4.13296        0.03872        3.55501
I          7.45475        1.47611        2.22184
H          4.48421        0.05045       -3.61126
H          6.06587        0.51785       -2.94861
H          4.79263        1.73661       -3.14270
H          4.66188       -0.66692       -1.20570
H          3.39352        0.53818       -1.40092
H          4.98067        2.33053       -0.61502
H          6.25387        1.12961       -0.43506
H          4.89192       -0.12485        1.26920
H          3.58317        0.99751        1.08861
H          3.27877        3.05626        0.77082
H          3.78590        6.97686        2.47318
H          6.36600        3.73229        3.69385
