29

O          0.98762       -0.75707       -0.23464
Al         2.55291       -0.43672        0.48614
S          3.66243        1.36056       -0.89246
O          5.10247        1.42331       -0.54920
O          3.31767        1.37307       -2.32959
C          3.12601        3.19039       -0.29895
C          1.65564        3.59295       -0.57796
C          1.13720        4.90738        0.10673
F          1.07545        4.78813        1.44655
F          1.93134        5.95770       -0.19295
F         -0.11349        5.19442       -0.33854
F          1.47093        3.75723       -1.91468
F          0.83192        2.58805       -0.14141
F          3.35587        3.28852        1.04668
F          3.94732        4.07565       -0.93296
C          3.85431       -1.91349        0.17377
C          5.14787       -1.81496        0.99555
C          6.15914       -2.92012        0.68927
N          7.36604       -2.78847        1.53293
H          0.31011       -0.07545       -0.15107
H          2.53233        0.29998        1.92491
H          4.09593       -1.95515       -0.90316
H          3.33509       -2.86503        0.39621
H          4.92427       -1.83652        2.07572
H          5.63112       -0.84047        0.80392
H          6.38108       -2.89678       -0.39697
H          5.70547       -3.90412        0.89971
H          7.74391       -1.84495        1.41646
H          8.09560       -3.42480        1.20631
