28

S          1.15102        0.20610       -0.60084
In         3.38465        1.02048        0.11775
S          4.30270       -1.19976        1.50324
O          3.58414       -1.46278        2.76639
O          4.55228       -2.35386        0.61259
C          6.12266       -0.73791        2.24586
C          7.33811       -1.10296        1.35930
C          8.74149       -0.55579        1.80505
F          8.79203        0.79016        1.75943
F          9.04645       -0.95280        3.05831
F          9.70416       -1.03212        0.97473
F          7.45934       -2.45603        1.29750
F          7.12894       -0.61461        0.09792
F          6.11796        0.62320        2.44418
F          6.26964       -1.34001        3.45599
C          4.63633        0.77659       -1.68125
C          3.99744        1.37477       -2.93538
C          4.67697        1.11096       -4.28322
O          4.39949        1.75160       -5.29889
N          5.59271        0.09816       -4.29499
H          0.52093        0.69545        0.49122
H          3.36424        2.27453        1.32629
H          4.72942       -0.31884       -1.74740
H          5.63648        1.19199       -1.49602
H          3.90980        2.46987       -2.86563
H          2.96029        1.01657       -3.05592
H          5.83557       -0.39274       -3.44271
H          6.05524       -0.13047       -5.16517
