16

Cl         2.85567       -0.35865        1.86795
In         3.05849        0.22456       -0.50468
S          4.59962        2.45559       -0.57010
O          5.73087        2.60050        0.34786
O          4.84609        2.78792       -1.97941
F          3.53940        3.69711       -0.06916
C          4.43774       -1.25383       -1.37074
C          5.90472       -0.94150       -1.11599
N          6.78101       -2.00757       -1.66706
H          1.52606        0.81400       -1.08106
H          4.24437       -1.35409       -2.44885
H          4.15527       -2.20345       -0.88582
H          6.06747       -0.77680       -0.03431
H          6.18507       -0.00411       -1.62047
H          6.58115       -2.88197       -1.17449
H          7.75781       -1.78574       -1.45635
