31

C          1.43446        0.73446        2.12776
C          2.26401        0.47327        0.86917
C          2.98674       -0.90462        0.89079
N          2.18255       -2.04593        1.28614
C          1.11528       -2.43375        0.59434
C          0.38435       -3.57404        1.10868
C         -0.75915       -4.06931        0.50946
C         -1.30149       -3.50073       -0.66551
C         -0.60874       -2.40791       -1.20064
C          0.54683       -1.88397       -0.62170
C         -1.17693       -1.72494       -2.40914
F         -1.87188       -2.57107       -3.23324
F         -2.06666       -0.72226       -2.08596
F         -0.23037       -1.12694       -3.19620
C         -1.45017       -5.26574        1.08817
F         -1.39085       -6.36616        0.25996
F         -0.94507       -5.67666        2.28562
F         -2.79365       -5.05355        1.29848
C          3.80765       -1.12335       -0.40208
H          0.95926        1.72713        2.09944
H          2.05984        0.68275        3.03298
H          0.64798       -0.02405        2.23493
H          3.03595        1.25686        0.75933
H          1.61404        0.56320       -0.01524
H          3.74277       -0.80405        1.69830
H          0.78228       -4.03518        2.01202
H         -2.20119       -3.89336       -1.13191
H          1.02421       -1.04100       -1.11338
H          3.17402       -1.18333       -1.29842
H          4.36264       -2.06882       -0.32535
H          4.53230       -0.30567       -0.55480
