41

C          6.49549        3.20584        9.75481
O          5.74263        2.25418        9.02963
C          6.38389        0.97821        8.99357
C          5.74511        0.11528        7.92312
O          6.27656        0.49292        6.67482
C          5.80555       -0.28290        5.57204
C          6.70773       -0.02421        4.38376
In         8.87232       -0.57379        4.66473
C          9.92688       -0.07513        2.73490
C         10.33511       -1.28591        1.89149
C          9.14577       -2.18763        1.54741
C          9.52734       -3.48297        0.83481
N          8.35847       -4.33602        0.68609
C          8.41085       -5.64055        0.25929
N          9.45105       -6.32789       -0.08469
N          7.13998       -6.24749        0.20754
I         10.21531        1.22049        6.50752
H          5.94187        4.15412        9.71835
H          7.49738        3.35245        9.31088
H          6.62352        2.90925       10.81618
H          6.29276        0.48517        9.98390
H          7.45731        1.09069        8.75220
H          4.64037        0.23457        7.95298
H          5.97304       -0.95139        8.13429
H          4.73864       -0.01424        5.38436
H          5.82120       -1.36028        5.84349
H          6.64335        1.03257        4.08097
H          6.35985       -0.62638        3.52663
H          9.12538       -2.20759        5.31619
H         10.80419        0.53469        2.99396
H          9.24613        0.57723        2.16028
H         11.07577       -1.88792        2.44701
H         10.83562       -0.98588        0.94685
H          8.42463       -1.62343        0.92728
H          8.62017       -2.45253        2.48017
H         10.27702       -4.02331        1.43677
H          9.99424       -3.26323       -0.14581
H          7.46203       -3.86503        0.62389
H         10.28265       -5.73250       -0.11754
H          6.57565       -6.06709        1.03582
H          7.24747       -7.24622        0.04790
