40

C          0.66668        2.08348       -3.69834
C          2.08899        2.08986       -4.26605
C          3.16396        1.80121       -3.21312
C          4.60128        1.83761       -3.75923
C          5.66664        1.50140       -2.70975
Ta         7.78733        1.73524       -2.99071
C          8.46645        0.37743       -1.31639
C          9.91957       -0.11560       -1.05492
C         10.98745        1.02361       -0.96214
C         12.45850        0.56519       -0.64981
F         12.93082       -0.29013       -1.57784
F         13.26338        1.65587       -0.64426
F         12.55700       -0.02131        0.56094
F         11.04169        1.67967       -2.15496
F         10.65316        1.90462        0.01747
F          9.99271       -0.83950        0.11858
F         10.31090       -0.95591       -2.05831
F          8.00976        0.84007       -0.06385
F          7.73480       -0.83025       -1.48166
C          8.04534        3.88399       -3.66854
C          7.70340        5.05802       -2.71113
F          8.65532        5.25089       -1.77118
F          7.54554        6.25673       -3.35308
F          6.52548        4.81350       -2.06240
F          9.27363        4.23916       -4.21730
F          7.08591        4.05060       -4.70890
H         -0.08524        2.28652       -4.47561
H          0.55045        2.84832       -2.91478
H          0.42333        1.11036       -3.24405
H          2.29386        3.06745       -4.73479
H          2.16560        1.34421       -5.07623
H          2.97293        0.81372       -2.75561
H          3.07721        2.53559       -2.39236
H          4.79211        2.83553       -4.18693
H          4.67889        1.12858       -4.60182
H          5.54477        0.46164       -2.34387
H          5.54783        2.15074       -1.81157
H          8.38932        1.84085       -4.64654
H          8.61454        0.32293       -3.65346
H          8.55217        2.66871       -1.70978
