18

N          2.52733        0.99669        0.75812
C          2.50461       -0.04219       -0.12828
O          1.97518       -1.12772        0.13300
C          3.20984        0.26065       -1.44550
C          4.74161        0.04617       -1.32987
Ga         5.83662        1.34477       -2.38388
S          5.52307        3.24808       -0.73651
O          4.15978        3.32483       -0.17658
O          6.61612        3.31819        0.23530
F          5.64615        4.70969       -1.57156
Cl         4.74809        2.00780       -4.22454
H          2.19732        0.82191        1.69974
H          3.04777        1.85394        0.55371
H          2.97851        1.29426       -1.74279
H          2.78879       -0.40192       -2.21148
H          5.00707       -0.98215       -1.61585
H          5.06958        0.16777       -0.28560
H          7.38353        1.34443       -2.61527
