41

N          1.70186        0.68077       -0.09402
C          2.19009       -0.56815       -0.39854
O          1.55464       -1.34330       -1.11537
C          3.57671       -0.87892        0.15596
C          3.90169       -0.40067        1.56004
As         5.94461       -0.60957        1.98313
C          5.65524       -2.27213        3.32227
C          5.62093       -1.83711        4.77387
C          5.31487       -2.88849        5.83981
O          5.28832       -2.68065        7.03648
O          5.05639       -4.13831        5.35520
C          8.01418       -0.56031        2.27553
C          8.41979        0.74513        2.93453
C          9.93170        1.02300        2.85141
C         10.35476        2.31520        3.52106
C         11.87891        2.63200        3.42689
F         12.61348        1.64500        3.99508
F         12.26848        2.74723        2.13401
F         12.18726        3.78925        4.05467
F          9.71158        3.40517        2.97636
F         10.05616        2.30696        4.86728
H          0.74049        0.87694       -0.34559
H          2.12208        1.20170        0.66728
H          4.30697       -0.42846       -0.54658
H          3.70221       -1.96684        0.06616
H          3.29704       -0.90941        2.32668
H          3.79684        0.68991        1.67908
H          5.73348        0.41374        3.23157
H          6.16743        0.63545        0.95373
H          6.12229       -1.68995        0.79128
H          6.49180       -2.94638        3.08655
H          4.70642       -2.71410        2.97678
H          4.88360       -1.02813        4.92064
H          6.57892       -1.37742        5.06937
H          5.14709       -4.05322        4.37617
H          8.40666       -0.64066        1.24947
H          8.34261       -1.43871        2.85376
H          8.10811        0.75016        3.98985
H          7.87409        1.57293        2.44720
H         10.25025        1.07327        1.79888
H         10.50062        0.20774        3.32402
