35

C          5.35603       -2.76644       -1.25453
C          4.64580       -1.60535       -0.55378
C          5.29406       -1.21531        0.77863
C          4.58042       -0.03311        1.44241
C          5.06414        0.27935        2.88094
C          4.25051        1.47780        3.37375
C          4.43962        2.00340        4.84096
F          4.11911        1.08630        5.76293
F          5.71069        2.42347        5.07510
F          3.63230        3.08378        5.04344
F          4.48529        2.62392        2.58680
F          2.90023        1.24932        3.26685
C          4.72060       -1.03288        3.83777
O          3.64051       -1.59829        3.56906
O          5.60469       -1.30335        4.68266
C          6.59070        0.51200        2.95782
C          7.21517        1.62064        2.09868
C          8.73992        1.67519        2.09226
O          9.37564        2.33277        1.26521
N          9.37236        0.97468        3.08332
H          4.87059       -3.02860       -2.20662
H          5.35816       -3.66601       -0.62042
H          6.40605       -2.51627       -1.47242
H          3.59207       -1.87317       -0.37026
H          4.62675       -0.72786       -1.22388
H          6.35816       -0.98218        0.59886
H          5.26462       -2.07894        1.46224
H          3.51283       -0.27936        1.51569
H          4.67642        0.85819        0.79761
H          7.03734       -0.45303        2.67709
H          6.84940        0.64110        4.01623
H          6.88063        2.61736        2.42393
H          6.91480        1.54300        1.04315
H          8.86244        0.37098        3.71717
H         10.38448        0.96751        3.08874
