52

N          9.84641       11.54148       -5.55568
C          8.99824       10.88124       -4.63116
N          7.92928       11.37111       -4.09452
N          9.41829        9.60034       -4.36568
C          8.61321        8.66127       -3.58215
C          9.36998        7.34681       -3.40365
C          8.57818        6.26702       -2.65829
C          9.34828        4.95547       -2.46925
B          8.51285        3.76975       -1.72083
C          9.43682        2.49568       -1.35383
C         10.52283        2.66387       -0.46267
C         11.35474        1.61069       -0.08548
C         11.14961        0.30101       -0.57656
C         10.07174        0.12231       -1.46655
C          9.24775        1.18791       -1.84261
Si        12.22727       -1.10842        0.00371
C         12.14296       -1.21723        1.91139
C         10.71044       -1.28998        2.45220
C         10.62702       -1.37782        3.95900
F         11.19343       -0.30559        4.58364
F          9.33347       -1.44398        4.39484
F         11.25522       -2.48960        4.45569
C         11.65452       -2.76212       -0.72298
C         14.05307       -0.85684       -0.43806
Cl         7.03175        3.23833       -2.87597
H          9.68681       12.54430       -5.57744
H         10.83471       11.33808       -5.41565
H          7.83364       12.36398       -4.32623
H          9.97375        9.16662       -5.09734
H          7.63794        8.48456       -4.06991
H          8.39536        9.12933       -2.61125
H         10.31876        7.54621       -2.87490
H          9.64898        6.95393       -4.40042
H          7.64154        6.05796       -3.20224
H          8.27445        6.65386       -1.66905
H         10.26644        5.16692       -1.88606
H          9.69801        4.59675       -3.45682
H          7.98905        4.19238       -0.69112
H         10.71118        3.65745       -0.04307
H         12.17712        1.81083        0.61176
H          9.86468       -0.87260       -1.87446
H          8.41723        1.01233       -2.53107
H         12.64563       -0.32735        2.32344
H         12.72450       -2.09086        2.24850
H         10.17388       -2.16890        2.06336
H         10.13410       -0.40309        2.14849
H         10.61055       -2.98765       -0.46270
H         12.28179       -3.58696       -0.35366
H         11.72411       -2.75250       -1.82016
H         14.41937        0.10611       -0.05388
H         14.18970       -0.84960       -1.52885
H         14.68589       -1.65343       -0.01848
