45

O          6.86377        0.94911        0.12328
C          5.67599        1.06727        0.80086
O          5.67173        1.62623        1.87867
C          4.44935        0.54630        0.08464
B          4.43885       -0.92416       -0.65295
S          4.58430       -2.40187        0.59952
O          4.36592       -3.69671       -0.05906
O          5.71160       -2.28923        1.53897
C          3.04364       -2.26348        1.74809
F          1.88708       -2.20445        1.04164
F          2.98913       -3.35875        2.54104
F          3.09290       -1.17444        2.54976
C          5.56312       -1.13966       -1.79871
C          6.81793       -1.76599       -1.62132
C          7.74072       -1.88288       -2.66282
C          7.44257       -1.36175       -3.92908
C          6.20925       -0.72607       -4.13664
C          5.29731       -0.62788       -3.08825
C          8.44433       -1.47682       -5.04178
C          8.58978       -2.88457       -5.73927
C          7.34788       -3.54341       -6.45268
C          6.68888       -2.89267       -7.73968
C          7.59715       -2.62666       -8.99810
C          6.79484       -2.39808      -10.33605
F          5.84154       -1.46087      -10.17990
F          7.65845       -1.97501      -11.28373
F          6.22322       -3.53485      -10.77018
F          8.34144       -1.51462       -8.78912
F          8.42386       -3.68295       -9.21445
F          5.71464       -3.77172       -8.12126
F          6.08832       -1.72823       -7.39456
F          7.73921       -4.80045       -6.81375
F          6.34149       -3.65918       -5.55125
F          9.59519       -2.82038       -6.66399
F          8.96687       -3.77990       -4.78309
F          8.19879       -0.56974       -6.04841
F          9.72021       -1.21494       -4.57898
H          6.72082        0.37938       -0.65950
H          4.25908        1.26101       -0.73822
H          3.60808        0.65715        0.78003
H          3.33307       -1.11276       -1.12963
H          7.08103       -2.17280       -0.64269
H          8.70008       -2.36951       -2.48449
H          5.96818       -0.30844       -5.11397
H          4.33579       -0.14231       -3.27222
