65

N          3.81686       -0.32040       -1.35873
P          2.54587       -0.13605       -0.02820
C          3.65396       -1.02816        1.30406
C          3.36510       -0.83743        2.66264
C          4.04442       -1.53054        3.67029
C          5.04661       -2.46024        3.35473
C          5.34667       -2.65560        1.99774
C          4.66835       -1.94968        0.99665
C          5.76008       -3.23819        4.43576
C          3.23678        1.63122        0.45228
C          2.30637        2.67153        0.58216
C          2.69592        3.97080        0.90815
C          4.05778        4.29449        1.10889
C          4.99347        3.24835        0.98072
C          4.58709        1.94527        0.66713
Si         4.55089        6.05074        1.50922
C          3.68919        6.60728        3.12413
C          4.10215        5.78564        4.35279
C          3.33844        6.18062        5.60413
C          3.64640        5.37199        6.91630
C          5.09904        5.37240        7.53020
C          5.78137        6.70528        8.04953
C          5.04514        7.54105        9.16237
C          5.96294        8.59573        9.89152
F          6.60788        9.37658        9.00451
F          5.18012        9.38050       10.66110
F          6.86748        7.99840       10.68639
F          4.01866        8.22710        8.60801
F          4.56120        6.71180       10.12335
F          6.98296        6.31152        8.56817
F          6.02897        7.51524        6.99113
F          5.07391        4.50678        8.57982
F          5.95939        4.87266        6.59849
F          2.80308        5.79544        7.90436
F          3.37103        4.06163        6.66310
F          3.52125        7.51558        5.90401
F          1.98543        6.01125        5.41537
C          6.42529        6.21774        1.72707
C          3.98187        7.25312        0.16055
H          3.32529       -0.79780       -2.11917
H          4.03863        0.61289       -1.71671
H          1.52191        0.02075        1.03404
H          1.99256       -1.45494       -0.42045
H          1.59581        0.56071       -0.94585
H          2.58042       -0.12295        2.93593
H          3.79680       -1.34753        4.72171
H          6.13551       -3.36489        1.72269
H          4.93185       -2.09128       -0.05379
H          5.77918       -2.68167        5.38453
H          6.79959       -3.46107        4.15206
H          5.26624       -4.20423        4.63672
H          1.24764        2.43888        0.41279
H          1.92942        4.74956        1.00328
H          6.05962        3.45162        1.12654
H          5.33584        1.15198        0.58974
H          2.60348        6.51578        2.96356
H          3.89513        7.67608        3.29537
H          5.17461        5.90782        4.55902
H          3.92638        4.71243        4.18158
H          6.81334        5.54527        2.50530
H          6.69624        7.24776        2.00340
H          6.94942        5.97305        0.79216
H          2.89646        7.17957        0.00211
H          4.47039        7.01426       -0.79487
H          4.21959        8.29665        0.41612
