34

C          1.62954       -0.04774       -0.44683
Ta         3.73339        0.42622       -0.38825
C          4.82445       -1.25156       -1.33601
C          6.16147       -1.61105       -1.06163
C          6.77701       -2.71774       -1.65677
C          6.08022       -3.53680       -2.55042
C          4.75089       -3.21008       -2.83458
C          4.14283       -2.09515       -2.24483
C          3.99146       -4.09697       -3.77876
F          4.66855       -4.31537       -4.95198
F          3.76049       -5.34593       -3.25390
F          2.77312       -3.60152       -4.12604
C          8.18858       -3.06461       -1.27866
F          8.99790       -1.96847       -1.19228
F          8.26454       -3.68257       -0.05569
F          8.78743       -3.91666       -2.16531
C          4.60925        1.70486        1.17361
C          5.63377        1.13411        2.14044
N          6.15014        2.16506        3.08304
H          1.54551       -1.13175       -0.23878
H          1.17670        0.15897       -1.43092
H          1.05586        0.49502        0.32125
H          3.24228        2.12649       -0.86537
H          4.61151        0.98780       -1.85503
H          4.08547       -0.70362        1.02554
H          6.74683       -1.01504       -0.35606
H          6.56095       -4.39781       -3.01123
H          3.10443       -1.88567       -2.51397
H          3.72946        2.09619        1.72449
H          5.03646        2.57386        0.63686
H          6.45540        0.65562        1.56516
H          5.17199        0.33130        2.73405
H          6.45454        2.97630        2.53916
H          6.98697        1.81514        3.55739
