24

S          5.63255       -0.84717        1.65850
C          5.07218       -1.31209       -0.04129
C          5.63644       -0.35322       -1.08536
C          5.11022        1.07950       -0.95655
C          5.42950        2.01767       -2.11969
C          4.84950        1.59923       -3.56222
O          4.23602        0.50341       -3.57339
O          5.04453        2.44082       -4.46449
C          5.04786        3.46330       -1.81753
O          3.58127        3.48407       -1.59458
C          3.03688        4.67763       -1.40393
F          3.51514        5.33307       -0.28628
F          3.21587        5.55549       -2.43830
F          1.70159        4.52836       -1.22748
I          7.65047        2.22534       -2.30679
H          5.04591       -1.87948        2.30772
H          3.97357       -1.29884       -0.05928
H          5.41896       -2.33473       -0.23924
H          5.33415       -0.71761       -2.07892
H          6.73729       -0.35649       -1.04096
H          5.45167        1.53392       -0.01028
H          4.00840        1.03782       -0.91585
H          5.27069        4.08187       -2.69544
H          5.52470        3.84611       -0.90391
