64

C          0.78125        0.45608       -0.10274
C          2.29925        0.27475       -0.01614
C          2.82964       -0.87638       -0.87879
C          4.34940       -1.05274       -0.79873
C          4.89219       -2.20915       -1.64569
C          6.41697       -2.34463       -1.58016
C          6.98224       -3.51792       -2.39118
C          8.51633       -3.58768       -2.37172
Si         9.28913       -5.08722       -3.24777
C          8.80928       -6.68790       -2.39634
C          8.77883       -6.76323       -0.98897
C          8.53712       -7.97058       -0.32803
C          8.31368       -9.17042       -1.03232
C          8.33306       -9.08568       -2.43704
C          8.57266       -7.88100       -3.10630
Ga         7.88160      -10.87719       -0.06318
C          8.41940      -10.84519        1.93434
C          7.58474       -9.90686        2.72823
O          7.99062       -9.02419        3.47257
O          6.22481      -10.06409        2.57349
C          8.48827      -12.62221       -0.92496
C          7.50913      -13.71500       -0.53560
S          7.98302      -15.38030       -1.18434
C          6.59754      -16.37336       -0.55161
C          8.75718       -5.08601       -5.06606
C         11.17082       -4.88637       -3.16550
H          0.43491        1.28587        0.53006
H          0.25222       -0.45246        0.22232
H          0.46269        0.66944       -1.13451
H          2.58958        0.10170        1.03413
H          2.79979        1.21185       -0.31521
H          2.53533       -0.70858       -1.93048
H          2.33546       -1.81613       -0.57515
H          4.64168       -1.20883        0.25472
H          4.84008       -0.11275       -1.10973
H          4.58254       -2.06974       -2.69707
H          4.42585       -3.15406       -1.31669
H          6.72860       -2.45693       -0.52672
H          6.88013       -1.40476       -1.93201
H          6.62664       -3.43897       -3.43367
H          6.56500       -4.46207       -2.00183
H          8.87469       -3.58990       -1.32719
H          8.94285       -2.67571       -2.82728
H          8.94849       -5.86250       -0.38952
H          8.52049       -7.97029        0.76556
H          8.15285       -9.98525       -3.03513
H          8.57578       -7.87612       -4.20101
H          6.24238      -10.99339        0.08064
H          9.48109      -10.64639        2.11740
H          8.18636      -11.88138        2.22764
H          6.08721      -10.56714        1.72721
H          9.50472      -12.86162       -0.57459
H          8.53491      -12.51374       -2.01999
H          6.50001      -13.49202       -0.91523
H          7.43196      -13.81325        0.55996
H          6.77098      -17.41601       -0.84833
H          5.63892      -16.04021       -0.97570
H          6.54076      -16.32480        0.54578
H          7.67244       -5.22910       -5.16753
H          9.25484       -5.88895       -5.62809
H          9.02311       -4.13047       -5.54176
H         11.50487       -4.88464       -2.11797
H         11.50924       -3.95231       -3.63788
H         11.66755       -5.72862       -3.66792
