42

C          5.02893        2.81118        0.53737
C          4.70152        1.31739        0.42722
C          5.26120        0.66053       -0.84529
C          4.89567       -0.81279       -1.04665
Ga         5.56538       -1.56313       -2.83762
C          4.11702       -2.76530       -3.64993
C          2.83476       -2.20345       -3.82156
C          1.77717       -2.89599       -4.42038
C          1.94911       -4.20435       -4.89601
C          3.21428       -4.78733       -4.73598
C          4.26215       -4.08305       -4.12709
C          0.82120       -4.94117       -5.57897
C          7.48773       -2.30046       -2.69261
C          7.77529       -3.15055       -1.44741
C          6.93461       -4.42785       -1.32691
C          7.99387       -2.95682       -3.98334
H          4.63641        3.25879        1.46410
H          4.60074        3.36891       -0.31016
H          6.11719        2.97997        0.51915
H          3.60638        1.17718        0.44688
H          5.08950        0.78362        1.31250
H          6.36158        0.77816       -0.84185
H          4.91814        1.24231       -1.72050
H          3.79644       -0.92617       -1.02076
H          5.28476       -1.41674       -0.20643
H          5.65660       -0.30400       -3.86679
H          2.65268       -1.17827       -3.48007
H          0.79782       -2.41470       -4.52521
H          3.38102       -5.81026       -5.09267
H          5.22654       -4.59032       -4.02608
H         -0.15650       -4.52588       -5.29314
H          0.82269       -6.01172       -5.32361
H          0.89476       -4.87240       -6.67785
H          8.05853       -1.36031       -2.57031
H          7.59908       -2.53368       -0.54943
H          8.85105       -3.43604       -1.41183
H          5.86163       -4.18590       -1.29653
H          7.18418       -4.99290       -0.41439
H          7.09359       -5.09990       -2.18371
H          7.46926       -3.89809       -4.21324
H          9.07758       -3.19971       -3.93989
H          7.83955       -2.29526       -4.84993
