64

O         -1.01136        1.12262        5.25963
C          0.03505        0.53267        5.85496
O         -0.12734       -0.48385        6.51601
C          1.40013        1.15359        5.70062
C          2.13691        1.27946        6.89204
C          3.42099        1.82029        6.88251
C          3.99239        2.20762        5.66720
C          3.27057        2.04845        4.48127
C          1.95885        1.53076        4.45704
Ga         1.20080        1.38333        2.59908
S         -0.19427        3.48007        2.74283
O         -0.89550        3.50734        4.05005
O          0.40039        4.74588        2.32552
F         -1.47126        3.27595        1.65645
C         -0.01154       -0.03864        1.89712
C         -0.60458       -1.07343        2.64471
C         -1.34881       -2.08304        2.02494
C         -1.54745       -2.10154        0.62933
C         -0.97487       -1.05206       -0.11619
C         -0.22068       -0.05335        0.50495
Si        -2.41928       -3.53538       -0.21442
C         -3.95156       -4.10123        0.77100
C         -5.13690       -3.12581        0.76588
C         -6.33678       -3.68516        1.51323
C         -7.61870       -2.78377        1.59225
C         -8.34866       -2.33877        0.26076
C         -8.84843       -3.46458       -0.72313
C         -9.93732       -2.96505       -1.75319
C        -10.13540       -3.91128       -2.99631
F        -10.32265       -5.18691       -2.60741
F        -11.22849       -3.50574       -3.67476
F         -9.08022       -3.85662       -3.82605
F        -11.13466       -2.87737       -1.12121
F         -9.60099       -1.74035       -2.23472
F         -7.77979       -3.92989       -1.42741
F         -9.39305       -4.48756       -0.02072
F         -9.43850       -1.61831        0.65213
F         -7.51807       -1.51337       -0.43075
F         -8.54612       -3.40991        2.36864
F         -7.27176       -1.61718        2.20858
F         -6.73915       -4.89253        0.97608
F         -6.00893       -3.93491        2.82487
C         -2.95357       -3.06527       -1.96837
C         -1.26834       -5.03516       -0.30257
H         -0.81713        2.01534        4.83926
H          1.68130        0.94191        7.82459
H          3.97470        1.93220        7.81714
H          5.00014        2.62908        5.64252
H          3.73666        2.34151        3.53636
H          2.25866        1.86207        1.52607
H         -0.49453       -1.10546        3.73041
H         -1.77748       -2.87165        2.65191
H         -1.10944       -1.01358       -1.20146
H          0.21923        0.73414       -0.11413
H         -3.64089       -4.30582        1.80724
H         -4.26679       -5.06855        0.34741
H         -5.45364       -2.90113       -0.26235
H         -4.86845       -2.16906        1.23803
H         -3.59989       -2.17606       -1.97809
H         -3.50383       -3.89197       -2.44209
H         -2.08217       -2.84424       -2.60105
H         -0.95990       -5.35061        0.70436
H         -0.35622       -4.78756       -0.86390
H         -1.75298       -5.89091       -0.79595
