16

N          2.85122       -0.52682       -1.19883
C          2.47887        0.04452        0.09969
C          3.07991       -0.79281        1.24978
S          2.35126       -0.03552        2.76233
O          2.84804        1.31174        2.97169
O          0.93246       -0.28979        2.87125
F          3.03461       -0.91897        3.92401
C          2.66301       -2.38060        1.15586
O          3.42491       -3.12910        1.79310
O          1.67629       -2.59969        0.42117
S          4.88868       -0.77779        1.37592
H          2.42104        0.03666       -1.93392
H          2.40937       -1.45353       -1.23081
H          1.38595        0.05981        0.26907
H          2.85112        1.08012        0.15729
H          5.03218        0.55393        1.13538
