33

S          4.74427        2.75040        2.90180
C          5.71395        1.22443        2.57671
C          4.90971        0.31170        1.64978
C          5.70306       -0.91870        1.19777
In         6.34220       -2.25127        2.81729
S          3.96701       -3.47423        3.09649
O          3.14077       -2.37981        3.65511
O          3.44832       -4.17943        1.91101
C          3.85951       -4.94544        4.43981
C          3.87842       -4.49864        5.92836
C          4.04491       -5.64961        6.99205
C          3.87281       -5.22053        8.49538
F          4.73816       -4.24547        8.83003
F          2.62180       -4.79927        8.75738
F          4.12243       -6.29372        9.28323
F          3.11735       -6.62024        6.75715
F          5.28420       -6.19539        6.88544
F          4.92109       -3.63422        6.10183
F          2.71454       -3.85092        6.20783
F          2.71923       -5.63817        4.19258
F          4.92775       -5.76027        4.19838
S          8.25121       -3.69620        1.68015
O          8.00213       -4.60848        0.56911
O          9.37185       -2.75875        1.55411
F          8.74399       -4.72268        2.93120
H          5.63256        3.33430        3.73953
H          5.92017        0.72412        3.53388
H          6.67041        1.50225        2.11188
H          4.60252        0.89918        0.76476
H          3.98287        0.00420        2.15839
H          6.61514       -0.63169        0.65352
H          5.09983       -1.54290        0.52532
H          6.92693       -2.08387        4.43840
