34

F          1.61249        0.55140        0.12985
C          2.86605        0.09798       -0.14046
C          2.78387       -1.33479       -0.72557
Ta         1.84475       -2.12399       -2.58732
C          3.47326       -1.99375       -4.10648
C          3.28874       -2.28832       -5.61441
C          4.58200       -2.65121       -6.43677
C          4.42487       -2.59967       -8.00023
F          4.26447       -1.33936       -8.44412
F          5.54891       -3.09821       -8.57055
F          3.38147       -3.34297       -8.41352
F          5.59112       -1.79148       -6.12180
F          4.97858       -3.91488       -6.12613
F          2.42833       -3.34301       -5.73273
F          2.72254       -1.19582       -6.20417
F          4.17530       -0.80768       -3.97704
F          4.32470       -3.00739       -3.58766
S         -0.53678       -2.60020       -2.90387
O         -0.69051       -3.47009       -4.08779
O         -1.19169       -3.00080       -1.64483
C         -1.60678       -1.08264       -3.40964
F         -1.61159       -0.11699       -2.46263
F         -1.20318       -0.52312       -4.57276
F         -2.88578       -1.50034       -3.57748
F          4.10120       -1.83502       -0.71643
F          2.09974       -2.09086        0.23496
C          3.55205        1.15905       -1.05880
F          3.50392        2.37619       -0.46437
F          4.84731        0.85878       -1.27951
F          2.92039        1.24814       -2.24457
F          3.56703        0.09548        1.04344
H          1.18864       -1.19496       -3.90213
H          0.85366       -0.80612       -2.03767
H          1.38902       -3.81170       -2.30383
