27

C          7.09183        0.08449        2.43487
C          6.07818        0.84340        1.57297
C          6.18222        0.51697        0.07805
C          5.16250        1.26797       -0.79038
Ga         5.51234        3.26231       -0.94024
C          3.97779        4.53231       -0.52540
C          2.66933        4.20451       -1.24599
C          1.46284        5.11367       -1.01884
O          0.30148        4.77603       -1.26500
N          1.75661        6.36612       -0.54719
Br         5.92784        3.70161       -3.37091
H          6.98402        0.32050        3.50485
H          8.12314        0.33491        2.14101
H          6.97511       -1.00516        2.32023
H          6.21518        1.92901        1.71009
H          5.05456        0.61442        1.91913
H          6.07935       -0.58147       -0.03959
H          7.20638        0.76035       -0.25910
H          4.14217        1.08705       -0.40674
H          5.18133        0.87772       -1.81917
H          6.86296        3.72007       -0.20331
H          4.35923        5.52601       -0.81779
H          3.83287        4.53991        0.56981
H          2.31909        3.18924       -1.00233
H          2.84205        4.19477       -2.33737
H          2.69801        6.57214       -0.23188
H          0.99231        6.99085       -0.32487
