14

F          1.73458       -0.62014       -1.39731
B          2.47931        0.08814       -0.48312
S          3.34311       -1.16195        0.81651
O          4.10893       -2.16048        0.05476
O          4.02129       -0.44774        1.90194
C          2.06069       -2.26102        1.81247
C          1.42769       -3.46665        1.06258
F          0.83033       -3.07330       -0.07667
F          2.34191       -4.41178        0.77313
F          0.47227       -4.05656        1.84442
F          2.73281       -2.76491        2.88818
F          1.04544       -1.47903        2.27108
I          1.21130        1.69392        0.56391
H          3.49259        0.62244       -0.88209
