29

C          6.21640       -0.69912        2.03088
C          5.21945       -0.54708        0.87718
C          5.67063        0.45577       -0.19641
C          4.69151        0.65477       -1.36008
Al         5.30449        1.97390       -2.76242
C          3.91969        2.36880       -4.18567
C          2.57726        2.96021       -3.71273
C          2.76126        4.33517       -3.05291
C          1.54759        3.06207       -4.85207
I          7.35839        0.80886       -4.06563
H          5.87638       -1.42795        2.78360
H          6.37413        0.26247        2.54487
H          7.19819       -1.03366        1.66058
H          4.23708       -0.23378        1.27367
H          5.05247       -1.52859        0.39941
H          6.64931        0.12771       -0.59191
H          5.86507        1.42863        0.29264
H          3.71798        1.00456       -0.96013
H          4.48362       -0.31902       -1.84157
H          5.93609        3.31392       -2.07076
H          3.72721        1.42920       -4.73594
H          4.36893        3.05447       -4.93041
H          2.14911        2.28345       -2.94811
H          3.17285        5.05496       -3.78058
H          3.46893        4.28770       -2.21321
H          1.80467        4.74139       -2.68368
H          1.92059        3.73454       -5.64288
H          0.57616        3.45628       -4.50401
H          1.37174        2.07831       -5.31273
