29

N          3.48944        0.69012       -1.29292
Ga         2.33370        0.53299        0.23791
C          1.29873       -1.30284        0.33160
C          2.08231       -2.62770        0.26429
F          2.79971       -2.70699       -0.88985
F          2.95792       -2.72766        1.29632
F          1.29174       -3.74334        0.30926
F          0.54941       -1.39265        1.51801
F          0.35839       -1.39201       -0.70278
C          3.57543        0.61860        1.83907
C          4.87978        1.11368        1.64291
C          5.78843        1.22846        2.70147
C          5.42388        0.84813        3.99894
C          4.13637        0.35629        4.21162
C          3.22745        0.24367        3.14529
C          3.71417       -0.08482        5.58512
F          4.60073        0.27633        6.56104
F          2.50536        0.43644        5.95064
F          3.58027       -1.44409        5.67797
C          7.17507        1.76756        2.49033
F          7.43956        2.09100        1.20026
F          7.40940        2.90068        3.23172
F          8.14495        0.87473        2.87578
H          2.95839        0.95109       -2.12560
H          3.94322       -0.19474       -1.52910
H          1.19199        1.63078        0.23391
H          5.17834        1.41121        0.63419
H          6.12766        0.93697        4.82569
H          2.22839       -0.15019        3.34992
