24

O          1.63329        0.56314       -0.08362
Nb         3.46741        0.03417        0.20870
S          4.60222       -1.91827        1.30636
O          5.98252       -1.52102        1.66933
O          3.77859       -2.58039        2.33937
C          4.93628       -3.41289        0.08657
C          5.73970       -4.59942        0.70009
F          5.12006       -5.13277        1.76975
F          5.87049       -5.59858       -0.22860
F          6.98283       -4.23022        1.06173
F          3.74504       -3.92731       -0.34498
F          5.63633       -2.99436       -1.00621
C          4.64813        1.61583       -0.74966
O          4.87110        1.60189       -2.20052
C          5.50149        2.64957       -2.72064
F          4.83356        3.84540       -2.56067
F          6.75589        2.86731       -2.20835
F          5.64209        2.45622       -4.05556
H          0.97878        0.05559       -0.58154
H          4.51779       -0.67377       -0.99598
H          3.85902        0.16619        1.94914
H          2.93332       -1.45409       -0.51584
H          5.62559        1.54328       -0.23568
H          4.18384        2.58764       -0.49055
