32

C          5.34725       -0.69494       -1.31496
C          4.61421        0.56252       -1.78921
C          3.16158        0.64641       -1.26194
C          2.60073        2.11835       -1.27686
S          3.28889        3.03992        0.19152
O          4.62271        2.56648        0.53055
O          2.97359        4.45326        0.17271
C          2.27201        2.44109        1.73094
F          1.01055        2.92218        1.74883
F          2.19438        1.08526        1.83683
F          2.90454        2.89891        2.83382
C          3.14291        2.87183       -2.61550
O          2.49087        2.53624       -3.62817
O          4.14399        3.59081       -2.45247
C          1.07659        2.12337       -1.25520
O          0.58247        3.49704       -1.22590
C         -0.73264        3.64609       -1.35494
F         -1.45816        3.06320       -0.33738
F         -1.02343        4.96324       -1.34660
F         -1.24829        3.11638       -2.50899
C          2.26920       -0.32234       -2.06287
H          6.36812       -0.72577       -1.72264
H          4.84511       -1.62491       -1.62414
H          5.42902       -0.70804       -0.21710
H          4.58603        0.59922       -2.88989
H          5.17385        1.44736       -1.46794
H          3.17025        0.30137       -0.21522
H          0.63835        1.57952       -0.40411
H          0.76478        1.67668       -2.20687
H          2.14200        0.04442       -3.09089
H          1.27753       -0.46594       -1.61112
H          2.74841       -1.31055       -2.10112
