7

In         1.15347        0.43349       -0.25997
Cl         0.13957        0.18891        2.06079
N          3.22081       -0.10296       -0.00836
H          0.33818       -0.77829       -1.25523
H          1.02360        2.15549       -0.63650
H          3.24805       -1.05167        0.37970
H          3.60113        0.47854        0.74567
