36

O          1.25212       -0.29757       -0.34039
In         3.00266        0.69033        0.37106
C          4.07452        1.40859       -1.49424
C          4.73641        0.33062       -2.36054
C          5.45449        0.87259       -3.61249
C          6.16690       -0.18317       -4.46788
C          6.89445        0.40773       -5.68099
C          4.07375       -1.04399        1.33044
C          3.97233       -1.13200        2.85427
C          4.76964       -2.27665        3.50782
C          4.69062       -2.28960        5.03909
C          5.52966       -3.38760        5.69957
H          0.65363        0.35627       -0.72997
H          2.52948        2.02591        1.47264
H          4.83039        2.15500       -1.18891
H          3.32638        1.95612       -2.09526
H          3.98079       -0.41010       -2.67926
H          5.47082       -0.23952       -1.76151
H          6.19158        1.63345       -3.29548
H          4.72082        1.41143       -4.23990
H          5.43389       -0.93425       -4.80932
H          6.88975       -0.73230       -3.83992
H          6.19309        0.93515       -6.34627
H          7.40245       -0.36523       -6.27850
H          7.65583        1.13889       -5.36688
H          5.13593       -1.01034        1.02690
H          3.64382       -1.94818        0.86584
H          2.91221       -1.23345        3.14928
H          4.31022       -0.18238        3.30941
H          5.82844       -2.19749        3.19880
H          4.41285       -3.24486        3.11107
H          3.63594       -2.39730        5.34591
H          5.01379       -1.30495        5.41945
H          5.20486       -4.38820        5.37455
H          5.45826       -3.35481        6.79797
H          6.59323       -3.28706        5.43238
