9

N          0.70226       -0.16733        0.01552
C          0.46148        0.59552        1.15942
N         -0.98737        0.98602        1.52930
O          0.42308        0.79407       -1.15815
H          0.98841        1.59321        1.19992
H          0.82468       -0.02155        2.00675
H         -1.52049        0.13038        1.31549
H         -1.27288        1.62364        0.77673
H          1.30231        0.80253       -1.56533
