53

N          4.73827        2.46107       -3.46691
C          4.56147        1.01766       -3.13962
C          4.70010        0.75707       -1.64993
In         4.38773       -1.37744       -1.03869
C          5.04744       -1.66390        1.21326
C          6.47303       -1.50224        1.82141
C          7.00838       -0.03617        1.96342
C          8.55981        0.09586        2.20107
F          8.97639       -0.65826        3.23846
F          9.26623       -0.24780        1.10883
F          8.85030        1.38984        2.48718
F          6.73712        0.67984        0.83956
F          6.40558        0.57438        3.02099
F          6.55725       -2.05284        3.08390
F          7.36576       -2.19294        1.03676
F          4.22011       -0.88973        2.04671
F          4.73086       -2.99778        1.53081
C          5.68726       -2.70399       -2.30192
C          6.61531       -3.63240       -1.78663
C          7.46320       -4.37718       -2.61265
C          7.42765       -4.24333       -4.01596
C          6.48614       -3.33942       -4.54454
C          5.64562       -2.59686       -3.70695
Si         8.59730       -5.21855       -5.10380
C          8.26838       -7.08622       -4.86013
C          9.14005       -8.00475       -5.72301
C          8.90300       -9.48283       -5.49710
F          7.61474       -9.85392       -5.74162
F          9.68941      -10.24700       -6.31935
F          9.18850       -9.87053       -4.22157
C          8.34872       -4.78646       -6.93109
C         10.40278       -4.87768       -4.63720
H          4.88252        2.57623       -4.47467
H          5.60376        2.77927       -3.02257
H          5.28295        0.38350       -3.69045
H          3.55510        0.73288       -3.49246
H          3.99146        1.38558       -1.08814
H          5.71448        1.04069       -1.32667
H          2.70339       -1.90273       -0.95449
H          6.69252       -3.77904       -0.70704
H          8.17247       -5.07140       -2.14690
H          6.40952       -3.20161       -5.62792
H          4.93962       -1.90609       -4.17890
H          7.20295       -7.27159       -5.06673
H          8.41849       -7.31627       -3.79325
H         10.21179       -7.83796       -5.53570
H          8.96943       -7.82841       -6.79584
H          7.32672       -5.01295       -7.26661
H          9.04700       -5.34320       -7.57320
H          8.52648       -3.71534       -7.10346
H         10.58909       -5.12301       -3.58173
H         10.63561       -3.81194       -4.77156
H         11.11008       -5.45623       -5.25019
