28

C          0.86118       -0.64133       -0.67503
C          2.31462       -0.43213       -0.21833
C          3.35607       -1.17625       -1.05728
Ta         5.50612       -0.94179       -0.73159
C          6.62333        0.44155        0.58530
C          6.10880        1.84956        0.91484
C          4.96457        1.79874        1.93842
C          7.23061        2.77182        1.42443
I          6.40130       -2.26477       -3.04047
H          0.14534       -0.09910       -0.03480
H          0.59353       -1.70931       -0.65020
H          0.71727       -0.29309       -1.70978
H          2.41555       -0.74759        0.83235
H          2.52738        0.65116       -0.23012
H          3.24005       -0.90638       -2.13013
H          3.17944       -2.27096       -0.99966
H          5.65053        0.65474       -1.59608
H          6.66266       -2.11090        0.00534
H          4.87144       -1.33843        0.89173
H          7.52450        0.52756       -0.06524
H          6.94427       -0.05512        1.51601
H          5.71236        2.29190       -0.01761
H          5.31280        1.34306        2.88028
H          4.12839        1.18616        1.57587
H          4.58354        2.80665        2.17145
H          7.68349        2.36080        2.34206
H          6.85689        3.78471        1.65595
H          8.02982        2.86765        0.67406
