37

N          0.70145        0.18938        0.08052
C          2.16852        0.30514        0.19516
C          2.74862        1.09897       -0.97955
C          4.25601        1.25217       -0.88445
Sb         5.09245        2.47124       -2.56096
S          4.61879        4.65348       -0.71125
O          4.94107        4.22197        0.68483
O          5.21424        5.95096       -1.15320
C          2.81234        5.01936       -0.65621
C          7.33461        2.60336       -1.76332
C          7.81661        3.90331       -1.98228
C          9.16768        4.23621       -1.85373
C         10.10835        3.24372       -1.56298
C          9.67200        1.93833       -1.36052
C          8.29824        1.62696       -1.41564
C          7.97587        0.22032       -1.01421
O          8.58285       -0.77134       -1.37057
O          6.96854        0.10022       -0.10123
H          0.33367       -0.38453        0.84081
H          0.46629       -0.30152       -0.78462
H          2.68548       -0.67389        0.25600
H          2.39039        0.83796        1.13367
H          2.24858        2.07932       -1.01941
H          2.48040        0.58803       -1.92312
H          4.76441        0.28189       -0.94050
H          4.55344        1.78806        0.02962
H          3.43645        2.69491       -3.20509
H          5.67367        3.77173       -3.58659
H          5.47121        1.13974       -3.63045
H          2.28283        4.16641       -0.21578
H          2.46204        5.21485       -1.67697
H          2.70691        5.91451       -0.02874
H          7.11293        4.69555       -2.25548
H          9.48521        5.27254       -1.98978
H         11.17069        3.48435       -1.48573
H         10.37837        1.13757       -1.13240
H          6.61101        0.99395        0.07166
