18

S          1.30062       -1.12562        0.80224
Al         2.81472        0.18248       -0.22273
S          4.45170        1.00049        1.49303
O          5.69608        0.17652        1.38975
O          4.63991        2.46304        1.51980
C          3.89111        0.61618        3.30113
F          3.78438       -0.70953        3.52306
F          4.79112        1.11918        4.17821
F          2.68906        1.18832        3.56303
C          4.16136       -0.75084       -1.38685
C          4.56609       -2.13613       -0.98958
O          4.18517       -3.15304       -1.54913
O          5.40500       -2.23633        0.07795
H          0.52410       -0.05510        1.09205
H          2.24051        1.57157       -0.78236
H          5.03381       -0.07745       -1.39598
H          3.73401       -0.78771       -2.39838
H          5.55058       -1.34574        0.49688
