39

N          3.48778        0.92932       -0.70096
C          2.40454        0.00883       -1.15289
C          3.15895       -1.08074       -1.89167
Ta         5.17781       -0.77643       -0.92248
C          6.15776        0.46685        0.69549
C          5.99029        0.17264        2.18576
C          6.98826        0.91829        3.09050
C          6.77977        0.74486        4.59758
N          5.56656        1.45162        5.05389
C          6.43026       -1.89783       -2.40534
C          6.53021       -3.41347       -2.53109
S          4.95857       -4.09993       -3.18602
C          5.46399       -5.82041       -3.46368
H          3.33669        1.35204        0.21294
H          3.68941        1.66215       -1.37957
H          1.61817        0.55435       -1.72038
H          1.94365       -0.40515       -0.24649
H          3.27344       -0.84930       -2.96951
H          2.71113       -2.08084       -1.80858
H          5.88230        0.70054       -1.79336
H          4.12840       -1.17785        0.51450
H          5.97518       -2.04239        0.08622
H          5.97696        1.54487        0.51455
H          7.22187        0.30860        0.40355
H          6.09463       -0.91195        2.35858
H          4.96383        0.42260        2.49980
H          6.96372        2.00032        2.85318
H          8.01091        0.58703        2.83939
H          7.69464        1.07432        5.13473
H          6.64432       -0.32602        4.82559
H          5.64720        2.44281        4.81590
H          5.48561        1.40306        6.07031
H          7.41843       -1.52235       -2.06205
H          6.28403       -1.44943       -3.40775
H          6.71426       -3.86848       -1.54523
H          7.32022       -3.75602       -3.22921
H          4.61154       -6.34557       -3.91543
H          5.72730       -6.32252       -2.52127
H          6.31961       -5.87819       -4.15391
