29

N          0.86085        0.10355        2.86089
C          2.27671       -0.36045        2.84266
C          3.06617        0.21036        1.67340
Al         4.98317       -0.43283        1.61664
C          5.77248       -0.03501       -0.29071
C          5.93233        1.41761       -0.77733
F          4.73270        2.05938       -0.78558
F          6.76082        2.11333        0.04664
F          6.44623        1.53436       -2.03935
F          7.05721       -0.59370       -0.43709
F          4.99278       -0.65375       -1.28798
C          6.16657        0.34901        3.06160
C          7.60870       -0.21977        3.04878
C          8.31985       -0.01076        4.37156
O          9.10750        0.90282        4.61720
N          8.01060       -0.95635        5.33928
H          0.30894       -0.47725        3.49909
H          0.46909       -0.05296        1.92877
H          2.34828       -1.46669        2.82111
H          2.72580       -0.03902        3.79929
H          3.00933        1.31268        1.69298
H          2.58707       -0.10627        0.72654
H          5.08329       -2.06675        1.71847
H          5.67366        0.07280        4.01408
H          6.21072        1.45027        3.06263
H          8.20327        0.27024        2.26713
H          7.58732       -1.29952        2.81923
H          7.18626       -1.53140        5.20427
H          8.23938       -0.70644        6.29561
