26

C          1.23495       -0.31502        1.13554
C          2.56763       -0.25776        0.36343
Al         2.60670        1.28295       -0.91651
S          4.91197        0.97594       -1.79395
O          5.84190        1.02239       -0.64658
O          5.06536       -0.15041       -2.73714
C          5.61308        2.56247       -2.81568
C          5.37427        2.71069       -4.34615
C          3.90409        2.77658       -4.90777
C          2.97573        3.97422       -4.48841
F          3.56861        5.16440       -4.73025
F          1.84733        3.91662       -5.23859
F          2.62484        3.91667       -3.20151
F          4.02323        2.86023       -6.27226
F          3.25446        1.63096       -4.60898
F          6.01087        3.85410       -4.78731
F          5.96166        1.65866       -4.97743
F          5.15617        3.69891       -2.20108
F          6.96881        2.52757       -2.66612
H          1.18586       -1.15202        1.85564
H          0.37415       -0.43091        0.45632
H          1.05893        0.60872        1.71135
H          2.72637       -1.20090       -0.18510
H          3.41152       -0.16735        1.06626
H          1.64642        1.14071       -2.21075
H          2.65486        2.75799       -0.25367
