54

C          8.75675        2.04376        5.67228
C          8.34306        1.53509        4.28894
C          8.87241        2.40066        3.14126
C          8.46457        1.90415        1.75074
C          8.99766        2.77095        0.60568
C          8.57697        2.29061       -0.78711
C          9.11289        3.16325       -1.93047
C          8.65935        2.71821       -3.32802
Si         9.27433        3.75978       -4.81633
C          8.62264        3.10316       -6.41282
C          7.84186        3.87709       -7.30577
C          7.36540        3.39039       -8.51622
C          7.63601        2.03979       -8.95954
C          8.42732        1.25871       -8.03546
C          8.89005        1.76677       -6.83973
N          7.23606        1.48701      -10.10475
C          6.45707        2.30003      -10.99924
C          6.13262        1.48718      -12.25734
N          5.41141        0.26401      -11.86046
C          8.72493        5.55977       -4.53548
C         11.18130        3.73081       -4.75497
H          8.36257        1.40545        6.47598
H          8.38707        3.06570        5.84607
H          9.85234        2.06971        5.77393
H          7.24257        1.48688        4.22767
H          8.69838        0.49929        4.15498
H          9.97437        2.44950        3.20247
H          8.51759        3.43809        3.27609
H          7.36269        1.85873        1.68977
H          8.81657        0.86594        1.61657
H         10.10041        2.80779        0.66138
H          8.65457        3.81130        0.74880
H          7.47446        2.25863       -0.84482
H          8.91628        1.25010       -0.93594
H         10.21608        3.17390       -1.87835
H          8.79669        4.20650       -1.75163
H          7.55636        2.70877       -3.37839
H          8.96704        1.67223       -3.50631
H          7.59577        4.91208       -7.04011
H          6.76895        4.04962       -9.14952
H          8.65316        0.22931       -8.32793
H          9.48902        1.10753       -6.19857
H          6.97880        3.23467      -11.31693
H          5.49142        2.63367      -10.54696
H          7.08964        1.27239      -12.77550
H          5.50347        2.08305      -12.94231
H          5.92775       -0.07151      -11.03499
H          5.51619       -0.45402      -12.57920
H          7.62917        5.64129       -4.49044
H          9.07298        6.20622       -5.35405
H          9.13406        5.96066       -3.59602
H         11.55702        2.71293       -4.93793
H         11.58478        4.07410       -3.78927
H         11.59181        4.37575       -5.54556
