26

C          0.86196        0.27788       -0.13732
C          2.37492        0.20922        0.09292
C          3.12425        1.47751       -0.33238
C          4.65461        1.37852       -0.19576
C          5.42814        2.63733       -0.59042
Ta         7.64974        2.71115       -0.61997
O          8.06633        2.58741        1.30070
C          7.75867        4.90692       -0.92973
H          0.35252       -0.64287        0.18705
H          0.63231        0.42728       -1.20390
H          0.41269        1.11911        0.41340
H          2.78999       -0.65368       -0.45566
H          2.57595        0.01134        1.16026
H          2.75564        2.33582        0.25925
H          2.87734        1.70977       -1.38470
H          5.01131        0.53294       -0.80912
H          4.89404        1.11323        0.85107
H          5.13444        3.47271        0.08540
H          5.13311        2.95116       -1.61260
H          7.18664        1.39121       -1.75918
H          8.92825        1.43786       -0.66170
H          8.69311        2.91982       -2.07379
H          8.76983        1.97661        1.55379
H          7.15917        5.39631       -0.13354
H          7.34599        5.21742       -1.90408
H          8.78214        5.31193       -0.87249
