36

C          0.43201        2.37991       -1.75251
O          1.79615        2.24274       -1.41439
C          2.53566        1.59284       -2.44527
C          3.99337        1.48533       -2.01825
O          4.66626        0.77952       -3.03689
C          6.07729        0.63824       -2.77317
C          6.68187       -0.06673       -3.99155
C          8.18968       -0.36665       -3.93583
C          9.13307        0.89560       -3.67015
O          8.54391        2.00853       -3.70063
O         10.33324        0.62370       -3.43255
C          8.60420       -1.61645       -3.14281
C          8.28655       -1.66565       -1.62550
C          8.76405       -3.01927       -1.07556
C          8.90237       -0.52091       -0.81088
I          8.68364       -0.94148       -6.09132
H         -0.06686        2.87738       -0.91001
H         -0.04784        1.39593       -1.92373
H          0.29490        2.99262       -2.66502
H          2.46384        2.16308       -3.39165
H          2.12902        0.57947       -2.63201
H          4.05918        0.95616       -1.04447
H          4.42338        2.49661       -1.87388
H          6.20159        0.06605       -1.83632
H          6.55354        1.62539       -2.65969
H          6.49195        0.59885       -4.84316
H          6.12582       -1.00291       -4.16913
H          9.69472       -1.70766       -3.26335
H          8.13564       -2.50385       -3.59999
H          7.19011       -1.63804       -1.49703
H          9.85783       -3.11020       -1.16967
H          8.31039       -3.86031       -1.62164
H          8.50887       -3.12588       -0.00963
H          9.99149       -0.48782       -0.95376
H          8.68605       -0.65640        0.26148
H          8.52271        0.46261       -1.11512
