44

C          1.47954       -0.62741       -0.58148
C          2.62838        0.35905       -0.34679
C          3.14316        0.36641        1.09715
C          4.30875        1.32997        1.35094
C          4.84761        1.29312        2.79312
C          6.02968        2.22656        3.07716
Ta         7.27817        2.23255        4.97491
C          5.70625        3.63493        5.79829
C          4.25256        3.43773        5.47860
O          3.41447        4.37657        6.22733
C          2.04104        4.17908        5.99397
C          1.29361        5.14431        6.90234
O         -0.11186        4.98162        6.71027
C         -0.86127        5.81551        7.56668
N          8.98617        2.78542        4.08198
H          1.13660       -0.61943       -1.62707
H          0.61333       -0.38799        0.05450
H          1.78521       -1.65713       -0.33909
H          2.30211        1.37678       -0.62378
H          3.46337        0.11720       -1.02723
H          3.45529       -0.65734        1.37313
H          2.30924        0.61689        1.77789
H          3.99334        2.36154        1.10834
H          5.13457        1.09789        0.65324
H          5.14504        0.25834        3.03492
H          4.00957        1.52251        3.47450
H          5.78626        3.25766        2.74772
H          6.87077        1.90944        2.41332
H          8.07944        3.28574        6.23124
H          7.15212        0.43308        4.77741
H          7.37940        1.39670        6.56789
H          6.03856        4.62974        5.44379
H          5.84692        3.63108        6.88943
H          3.90514        2.41694        5.74180
H          4.04240        3.58936        4.40309
H          1.73375        3.13696        6.22453
H          1.76907        4.36972        4.93348
H          1.59520        6.18546        6.67369
H          1.56450        4.94220        7.95682
H         -1.92364        5.63446        7.35560
H         -0.63888        6.88754        7.39611
H         -0.66432        5.59110        8.63397
H          9.19463        2.55690        3.10932
H          9.67535        3.42293        4.46348
