13

O          1.32665       -0.78343       -0.61118
C          2.35529       -0.14231       -0.31055
O          2.88835        0.88766       -0.76919
C          3.13790       -0.76261        0.94916
C          2.75399       -0.16589        2.33900
C          1.23713       -0.17322        2.72931
F          0.70159       -1.40613        2.66768
F          1.11424        0.25722        4.02179
F          0.51893        0.66006        1.96278
F          3.40579       -0.85858        3.33975
F          3.16654        1.13230        2.41646
F          2.95378       -2.12819        1.05142
F          4.50483       -0.57757        0.85106
