62

O          3.26258       -1.13553        0.68510
Nb         3.53796        0.44935       -0.43774
C          4.66772        1.83564        0.90720
C          4.97776        1.41056        2.22442
C          5.59881        2.24259        3.15999
C          5.95749        3.57103        2.84503
C          5.66537        4.00597        1.53144
C          5.04855        3.16628        0.60482
Si         6.73035        4.66993        4.13311
C          8.36531        3.90569        4.77533
C          9.42330        3.71527        3.68084
C         10.71397        3.11906        4.21204
C         11.83373        2.77552        3.16376
C         12.41818        3.89872        2.22469
C         13.17269        5.16113        2.81298
C         14.44176        4.92431        3.71391
C         15.34256        6.20299        3.91368
F         14.61335        7.25121        4.34015
F         16.27554        5.92322        4.84802
F         15.97698        6.54511        2.77874
F         14.05354        4.51951        4.94561
F         15.23415        3.97002        3.15928
F         13.57988        5.87451        1.72059
F         12.28696        5.92138        3.50288
F         13.28432        3.28062        1.37517
F         11.39771        4.40897        1.48060
F         12.89640        2.21746        3.81818
F         11.32581        1.83761        2.31515
F         11.29221        3.94338        5.15736
F         10.47308        1.92009        4.84532
C          7.11458        6.39602        3.44772
C          5.61886        4.85595        5.65799
C          3.34953        1.47113       -2.49740
C          2.22111        0.89260       -3.34778
C          1.00064        0.61518       -2.47229
N          1.43046       -0.27491       -1.37389
H          3.18065       -2.04643        0.37322
H          2.29303        1.78404       -0.13485
H          4.03109       -0.74777       -1.72164
H          5.27190        0.54061       -0.86285
H          4.72024        0.39174        2.53435
H          5.79987        1.84593        4.16346
H          5.92102        5.02771        1.22919
H          4.84884        3.56244       -0.39602
H          8.12312        2.93225        5.22934
H          8.76299        4.54211        5.58239
H          9.67276        4.67573        3.20774
H          9.04400        3.05453        2.88641
H          7.76993        6.35429        2.56589
H          7.60953        7.01767        4.20880
H          6.19106        6.90905        3.14370
H          5.36542        3.87066        6.07491
H          4.67520        5.34860        5.38385
H          6.10038        5.44910        6.45005
H          4.31124        1.37247       -3.01926
H          3.17145        2.54574       -2.30763
H          2.55371       -0.06740       -3.78541
H          1.90767        1.53185       -4.19898
H          0.15719        0.18695       -3.04900
H          0.66528        1.55168       -2.00180
H          1.58606       -1.22219       -1.71874
H          0.74637       -0.30993       -0.61877
