110

C          0.97301       -2.04105       -0.89148
O          2.15674       -1.32120       -0.61333
C          3.13629       -1.49689       -1.63420
C          4.38239       -0.68874       -1.29213
O          5.25852       -0.84236       -2.38776
C          6.55551       -0.20312       -2.22551
C          7.40043       -0.53310       -3.41926
Sb         9.55517        0.23710       -3.42588
C         10.07499       -1.52912       -2.04098
C         10.39650       -2.82496       -2.47867
C         10.66506       -3.85674       -1.57268
C         10.62963       -3.63647       -0.17973
C         10.29808       -2.33852        0.25684
C         10.02707       -1.31525       -0.65823
Si        10.98254       -5.02426        1.02803
C          9.57604       -6.32444        1.00227
C          8.18994       -5.71649        0.76029
C          6.97231       -6.55244        1.13544
C          6.47517       -7.70689        0.17958
C          7.33013       -9.00313       -0.11479
C          7.80134       -9.98021        1.03482
C          6.75901      -10.72117        1.96754
C          5.68160      -11.66619        1.31561
F          6.24685      -12.53396        0.45642
F          5.09041      -12.37188        2.30411
F          4.73266      -10.96837        0.67512
F          7.51372      -11.51004        2.78592
F          6.10623       -9.81708        2.73399
F          8.52725      -10.95120        0.40989
F          8.63646       -9.31095        1.86756
F          6.59050       -9.75666       -0.98098
F          8.46239       -8.63036       -0.76778
F          5.27025       -8.14504        0.64823
F          6.26837       -7.14912       -1.04890
F          7.09903       -7.09198        2.39672
F          5.87737       -5.71190        1.18779
C         12.57128       -5.94964        0.58809
C         11.11429       -4.36216        2.79522
C          9.91466       -1.07466       -5.31369
C          9.07519       -2.10665       -5.77025
C          9.33703       -2.80456       -6.95343
C         10.45520       -2.49608       -7.75298
C         11.30659       -1.47174       -7.29039
C         11.03918       -0.78823       -6.09797
Si        10.78112       -3.44560       -9.33536
C         11.48284       -5.18523       -8.94856
C         12.47734       -5.17370       -7.78191
C         13.46472       -6.32865       -7.67051
C         13.00730       -7.70877       -7.05666
C         11.95427       -8.65138       -7.76234
C         12.18273       -9.23185       -9.21436
C         13.43812      -10.13312       -9.55753
C         13.66463      -11.47231       -8.76046
F         12.54704      -12.22120       -8.73401
F         14.63185      -12.17445       -9.38957
F         14.06733      -11.23996       -7.50297
F         13.27067      -10.49059      -10.86362
F         14.57005       -9.39816       -9.46059
F         11.07644       -9.98382       -9.48053
F         12.20727       -8.20411      -10.09913
F         11.79987       -9.72936       -6.93844
F         10.76146       -8.00154       -7.81047
F         14.12427       -8.46800       -6.86053
F         12.46266       -7.44179       -5.83357
F         14.06812       -6.59569       -8.87915
F         14.47814       -5.93927       -6.81529
C          9.19453       -3.71629      -10.32752
C         12.04709       -2.54729      -10.41571
H          0.27460       -1.85702       -0.06454
H          1.16155       -3.12992       -0.96662
H          0.50410       -1.70776       -1.83850
H          2.74033       -1.15817       -2.61177
H          3.40206       -2.56715       -1.73524
H          4.83509       -1.06468       -0.35178
H          4.10760        0.37394       -1.12757
H          7.01539       -0.57713       -1.28936
H          6.40142        0.88801       -2.11030
H          6.94879       -0.14487       -4.34441
H          7.48527       -1.62586       -3.49379
H         11.28652        0.69275       -3.56520
H          9.33912        1.21109       -1.93225
H          9.07485        1.61006       -4.47259
H         10.44445       -3.04045       -3.54987
H         10.91398       -4.85053       -1.96254
H         10.25575       -2.11587        1.32760
H          9.77482       -0.31519       -0.28423
H          9.60466       -6.84538        1.97160
H          9.81898       -7.07144        0.23675
H          8.07420       -5.39669       -0.28500
H          8.05682       -4.80201        1.36094
H         12.52947       -6.33469       -0.44056
H         12.73015       -6.80391        1.26282
H         13.44392       -5.28617        0.66066
H         10.16877       -3.91981        3.13955
H         11.89222       -3.58966        2.87079
H         11.37475       -5.17694        3.48619
H          8.18734       -2.38620       -5.19981
H          8.64607       -3.59819       -7.25887
H         12.19199       -1.19447       -7.87157
H         11.72993       -0.00316       -5.76570
H         11.96662       -5.54935       -9.86791
H         10.64269       -5.86103       -8.74482
H         11.95559       -5.07648       -6.81954
H         13.13847       -4.29386       -7.84418
H          8.43757       -4.24262       -9.72930
H          9.39305       -4.31993      -11.22553
H          8.76182       -2.75796      -10.64556
H         13.02988       -2.47531       -9.92896
H         11.71160       -1.52557      -10.64145
H         12.18284       -3.08175      -11.36710
