14

S          1.17990       -0.06286        3.01254
N          2.79617        0.09474        2.62681
C          3.13769       -0.53598        1.37848
C          4.67452       -0.59828        1.25547
C          5.25350       -1.38702        2.42359
S          7.08097       -1.36203        2.57653
H          0.47840        0.89032        2.24004
H          2.75445        0.01308        0.47351
H          2.72776       -1.57707        1.26550
H          5.07785        0.42651        1.28027
H          4.96751       -1.05683        0.29373
H          4.91621       -2.43351        2.40261
H          4.87678       -0.93423        3.35327
H          7.37098       -1.89130        1.36154
