28

O          1.55448        0.22244       -0.77170
Sb         3.65874        0.34884       -0.96485
C          3.64461       -2.05919       -1.11528
C          3.08229       -2.74036       -2.38315
C          3.26715       -4.30060       -2.53707
C          2.35874       -4.99215       -3.61740
F          2.43926       -4.36937       -4.81035
F          2.76820       -6.27674       -3.79404
F          1.06775       -5.02998       -3.23733
F          4.55685       -4.57560       -2.88389
F          2.99798       -4.93482       -1.36035
F          1.74142       -2.48917       -2.46938
F          3.69416       -2.18538       -3.48078
F          4.94574       -2.54167       -0.94963
F          2.92579       -2.54826       -0.02896
C          3.73257        2.55023       -0.61726
C          2.49979        3.17301        0.04562
N          1.25268        3.15122       -0.73433
H          1.37361       -0.23818        0.06344
H          3.74020       -0.01405        0.77989
H          3.28460        0.48145       -2.68031
H          5.41419        0.24620       -1.21262
H          3.91996        3.01127       -1.60269
H          4.63129        2.70238        0.00502
H          2.71137        4.22391        0.32314
H          2.29450        2.64885        0.99544
H          1.03582        2.15644       -0.90292
H          1.43236        3.56037       -1.65515
