30

C          1.27441        0.41508        0.42442
C          2.78049        0.22058        0.21339
C          3.19447       -1.25054        0.03171
C          4.67772       -1.47868       -0.20889
Sb         5.23179       -3.69506       -0.52117
C          4.45199       -3.73962       -2.68269
N          3.56501       -4.89038       -2.88821
C          7.37274       -3.07717       -1.10698
C          7.52373       -2.00739       -2.18893
H          1.00583        1.47599        0.54887
H          0.92833       -0.12490        1.31958
H          0.70319        0.02406       -0.43195
H          3.33369        0.64660        1.06840
H          3.10602        0.79583       -0.67101
H          2.61417       -1.67363       -0.81031
H          2.86676       -1.82421        0.91830
H          5.28690       -1.13096        0.64250
H          5.01108       -0.93989       -1.11135
H          3.51429       -4.20322       -0.08184
H          5.63300       -5.47049       -0.80467
H          5.74161       -3.83548        1.20142
H          5.30846       -3.81172       -3.37096
H          3.90664       -2.80679       -2.89866
H          2.85083       -4.85297       -2.14790
H          4.10791       -5.72925       -2.64520
H          7.84200       -4.02448       -1.41937
H          7.85256       -2.76052       -0.16635
H          7.00196       -2.28645       -3.11834
H          8.57847       -1.81394       -2.46667
H          7.10155       -1.04216       -1.86907
