20

C          0.97653        0.04770       -0.39147
C          2.49491       -0.09140       -0.21351
C          3.15835       -1.04086       -1.22223
Al         5.14036       -1.18839       -1.03063
S          5.90307       -2.58406       -2.83493
O          5.24274       -2.07988       -4.07156
O          7.37166       -2.78320       -2.90231
C          5.22029       -4.26302       -2.59554
I          5.71844       -2.45828        1.19908
H          0.53226        0.73562        0.34704
H          0.48047       -0.92955       -0.28208
H          0.73248        0.42686       -1.39623
H          2.70580       -0.43703        0.81312
H          2.95388        0.91029       -0.28874
H          2.95685       -0.69836       -2.25361
H          2.70139       -2.04344       -1.14032
H          6.02375        0.14942       -1.15267
H          4.12657       -4.19988       -2.54145
H          5.63976       -4.68658       -1.67548
H          5.53495       -4.83663       -3.47770
