16

Br         1.20226       -0.65571       -0.20954
In         3.75079       -0.37599       -0.67913
S          4.36540        2.18542       -0.24935
O          3.82027        3.18689       -1.20248
O          4.25541        2.51566        1.19699
C          6.17394        2.18014       -0.56739
C          4.80846       -1.28040        1.04983
N          6.24778       -1.47530        0.77018
H          4.09200       -0.73635       -2.36423
H          6.34112        1.99502       -1.63584
H          6.63666        1.39759        0.04847
H          6.53324        3.17861       -0.28224
H          4.26964       -2.19361        1.36336
H          4.70174       -0.53746        1.85291
H          6.37436       -2.10077       -0.02618
H          6.71866       -1.92486        1.56089
