45

C          5.77140       -0.95009       -7.08851
C          5.17270       -0.44064       -5.77456
C          5.33542       -1.42574       -4.61334
C          4.75233       -0.91219       -3.29198
C          4.88692       -1.90316       -2.14188
Nb         6.67217       -2.71728       -1.26370
S          8.49744       -1.07478       -0.97523
O          9.89937       -0.96307       -1.41811
O          7.45414       -0.28123       -1.72628
C          8.58919       -0.10532        0.69103
F          7.38018        0.24451        1.17942
F          9.22411       -0.84856        1.63340
F          9.30201        1.03592        0.51927
C          8.28171       -3.49838       -2.66002
C          7.86707       -4.62791       -3.56804
O          8.88438       -4.89155       -4.57867
C          8.47981       -5.88532       -5.48917
C          9.54824       -6.08661       -6.54630
O         10.63042       -6.85042       -6.01976
C         11.71235       -6.93056       -6.92181
H          5.64328       -0.22361       -7.90507
H          5.29644       -1.89290       -7.40199
H          6.84851       -1.14667       -6.97976
H          4.10012       -0.21891       -5.91765
H          5.64751        0.51663       -5.50037
H          6.40700       -1.64561       -4.47149
H          4.85750       -2.38631       -4.87977
H          3.68986       -0.64342       -3.45949
H          5.26896        0.02041       -3.01538
H          4.35302       -2.85913       -2.34259
H          4.46585       -1.49235       -1.19812
H          6.84842       -2.25480        0.43709
H          5.87620       -3.69349       -0.02608
H          6.40965       -4.45319       -1.52814
H          9.14093       -3.80753       -2.03912
H          8.64422       -2.65131       -3.27111
H          6.92244       -4.39651       -4.10374
H          7.69038       -5.55385       -2.99071
H          7.53576       -5.59130       -6.00021
H          8.28371       -6.85203       -4.97739
H          9.91117       -5.09644       -6.88532
H          9.11225       -6.61206       -7.42234
H         12.49607       -7.53084       -6.44055
H         12.12265       -5.92968       -7.15951
H         11.42123       -7.41924       -7.87440
