64

C          9.45215       -4.29366       -4.18175
C          8.92401       -3.25164       -3.19300
C          9.22617       -1.80845       -3.60958
C          8.70573       -0.76164       -2.61992
C          9.04255        0.68280       -3.00531
C          8.52720        1.71801       -1.99997
C          8.96121        3.15906       -2.30168
C          8.46191        4.17246       -1.26038
Si         9.15386        5.94598       -1.36847
C          8.60427        6.87855       -2.91001
C          7.26037        7.26711       -3.07702
C          6.85841        8.04495       -4.16930
C          7.77254        8.50282       -5.15021
C          9.11255        8.09187       -4.97691
C          9.51788        7.29808       -3.90083
Ta         6.95898        9.67909       -6.82447
C          4.83686       10.15896       -6.36562
O          4.58845       11.07105       -5.22607
C          3.32524       11.25238       -4.86907
F          2.67031       10.10170       -4.48563
F          3.28258       12.09723       -3.80586
F          2.53312       11.80417       -5.84947
C          6.54158        8.31773       -8.50372
O          5.55188        7.27833       -7.99509
C          5.11744        6.37179       -8.85016
F          4.45142        6.89198       -9.93949
F          6.10709        5.57571       -9.38579
F          4.24334        5.53745       -8.22308
C          8.53069        6.86211        0.17011
C         11.04600        5.85977       -1.29669
H          9.22469       -5.31781       -3.85295
H         10.54378       -4.21488       -4.29685
H          9.00642       -4.15701       -5.17851
H          9.35817       -3.43741       -2.19569
H          7.83396       -3.37432       -3.07524
H          8.79131       -1.61843       -4.60663
H         10.31764       -1.68721       -3.72873
H          9.12158       -0.97334       -1.61846
H          7.61103       -0.86822       -2.52007
H          8.63057        0.90376       -4.00507
H         10.13842        0.78399       -3.10057
H          8.88199        1.44633       -0.98909
H          7.42493        1.66995       -1.95513
H          8.60615        3.45154       -3.30374
H         10.06379        3.18561       -2.35323
H          8.71384        3.80802       -0.24661
H          7.35959        4.22553       -1.28902
H          6.50796        6.97051       -2.33794
H          5.79842        8.31448       -4.23666
H          9.86770        8.43253       -5.69145
H         10.57426        7.02606       -3.81380
H          7.83656       10.16424       -8.29542
H          8.48723       10.50302       -6.49885
H          6.88521       11.44756       -6.90243
H          4.32634        9.20158       -6.13273
H          4.34754       10.58489       -7.25896
H          7.41207        7.76216       -8.88654
H          6.05725        8.82671       -9.35278
H          7.43320        6.92918        0.17327
H          8.92266        7.88847        0.19896
H          8.83938        6.34939        1.09338
H         11.46943        5.32485       -2.15841
H         11.37166        5.33655       -0.38524
H         11.48495        6.86740       -1.28168
