50

C          0.29825       -0.97905       -1.02037
C          1.75358       -0.59908       -0.73157
C          2.75502       -1.71172       -1.06086
C          4.20986       -1.31741       -0.79569
C          5.18951       -2.45399       -1.12356
C          6.64986       -2.11377       -0.78766
C          7.10779       -0.88340       -1.54409
C          7.20766       -0.87138       -2.94563
C          7.49275        0.30115       -3.64182
C          7.68704        1.52418       -2.96955
C          7.59244        1.50245       -1.56426
C          7.31668        0.32749       -0.86255
Si         8.13883        3.08948       -3.89230
C         10.03586        3.28007       -3.94637
C         10.70199        3.24057       -2.56651
C         12.19650        3.47486       -2.60157
F         12.85945        2.54850       -3.35011
F         12.52064        4.69843       -3.12621
F         12.74544        3.43646       -1.35329
C          7.53603        3.04123       -5.68381
C          7.41157        4.61333       -3.03833
C          6.94792       -2.06345        0.79343
O          8.09302       -1.66460        1.10502
O          5.98004       -2.40814        1.51500
Br         7.74282       -3.70967       -1.46681
H         -0.39499       -0.15997       -0.77701
H         -0.00701       -1.85841       -0.43228
H          0.15597       -1.23132       -2.08273
H          1.86018       -0.32325        0.33082
H          2.01782        0.30625       -1.30497
H          2.63518       -2.00621       -2.11998
H          2.50886       -2.60947       -0.46658
H          4.33675       -1.05334        0.26491
H          4.45702       -0.42134       -1.38988
H          5.10396       -2.71715       -2.19144
H          4.92384       -3.33701       -0.52582
H          7.07110       -1.80543       -3.49303
H          7.55875        0.25734       -4.73246
H          7.73706        2.42223       -0.99030
H          7.27632        0.32823        0.22568
H         10.27370        4.22717       -4.45816
H         10.43701        2.47006       -4.57569
H         10.54016        2.26930       -2.07573
H         10.29091        4.00885       -1.89390
H          7.99033        2.20925       -6.23966
H          7.79631        3.97402       -6.20475
H          6.44499        2.91793       -5.72635
H          7.74593        4.70436       -1.99564
H          6.31417        4.55970       -3.02746
H          7.70567        5.53157       -3.56725
