42

C          0.79942       -0.13929        0.61353
C          2.30233       -0.00281        0.35380
C          2.82023       -0.93204       -0.74860
C          4.32193       -0.79808       -1.02690
C          4.83687       -1.72338       -2.13959
C          6.31876       -1.59793       -2.45540
P          6.93533       -2.95926       -3.74341
C          6.71960       -1.71832       -5.29463
C          7.75451       -0.66209       -5.63636
N          7.29056        0.24231       -6.73146
C          8.82385       -2.52227       -3.41425
C          9.48658       -3.48607       -2.44246
C         11.00095       -3.28640       -2.28578
H          0.45491        0.54168        1.40644
H          0.54161       -1.16505        0.91873
H          0.21972        0.08593       -0.29486
H          2.85701       -0.20231        1.28675
H          2.53446        1.04171        0.08348
H          2.26029       -0.73475       -1.68055
H          2.59220       -1.97881       -0.47792
H          4.88460       -1.00029       -0.09717
H          4.54777        0.25074       -1.29290
H          4.24969       -1.53771       -3.05760
H          4.62238       -2.77390       -1.86324
H          6.91516       -1.76356       -1.54039
H          6.55071       -0.58298       -2.82475
H          6.95142       -3.94591       -2.60924
H          5.52555       -3.36360       -4.03078
H          7.40972       -4.04741       -4.66768
H          5.74759       -1.22511       -5.12213
H          6.59313       -2.40850       -6.14931
H          8.71408       -1.14975       -5.89251
H          7.95079       -0.02204       -4.75929
H          6.95422       -0.34441       -7.49946
H          8.08635        0.76753       -7.10840
H          8.93366       -1.48281       -3.05657
H          9.32186       -2.59442       -4.39622
H          9.28658       -4.51944       -2.78074
H          9.00407       -3.40477       -1.45281
H         11.51435       -3.40084       -3.25407
H         11.44749       -4.01076       -1.58223
H         11.23203       -2.27480       -1.91521
