47

C          3.51126       -1.42183       -0.18452
C          2.63333       -0.17955        0.03320
B          3.09790        0.78865        1.29056
C          2.03159        2.03393        1.52057
C          0.63051        1.62565        1.99192
C         -0.32195        2.79040        2.29727
C         -1.71817        2.36339        2.76389
C         -2.64597        3.53212        3.11092
C         -4.04236        3.09493        3.56131
C          4.64077        1.36945        1.10569
C          4.90424        2.23997       -0.13269
C          6.34356        2.75808       -0.26392
C          6.60052        3.62804       -1.49960
C          8.04517        4.12380       -1.62654
C          8.29149        4.99090       -2.86435
H          3.15212       -2.09030       -0.98984
H          3.56741       -2.01852        0.74161
H          4.54780       -1.14193       -0.43731
H          1.59202       -0.52216        0.19120
H          2.59931        0.39702       -0.91615
H          3.09011        0.08953        2.33311
H          1.91594        2.63583        0.59307
H          2.45074        2.73621        2.27191
H          0.72920        0.99839        2.89778
H          0.15781        0.97499        1.23292
H         -0.41939        3.42613        1.39771
H          0.13667        3.43479        3.07026
H         -1.62088        1.70472        3.64617
H         -2.19129        1.74486        1.97947
H         -2.73346        4.19719        2.23441
H         -2.17723        4.14031        3.90376
H         -4.55112        2.52078        2.77155
H         -4.68210        3.95419        3.81390
H         -3.98686        2.44765        4.45030
H          5.36808        0.53212        1.09459
H          4.90631        1.96531        2.00380
H          4.21747        3.10653       -0.12830
H          4.65309        1.66945       -1.04672
H          7.03516        1.89535       -0.27795
H          6.60210        3.33335        0.64441
H          5.91943        4.49851       -1.48092
H          6.33318        3.05845       -2.40813
H          8.72447        3.25426       -1.64568
H          8.31219        4.69347       -0.71964
H          8.06347        4.43652       -3.78776
H          9.33612        5.33140       -2.92826
H          7.64944        5.88522       -2.85435
