23

O          1.18561       -0.03484        0.47050
As         3.06918       -0.09603        0.79789
C          3.41321       -1.29524       -1.22606
C          2.95605       -1.13625       -2.70227
C          3.63263       -0.08554       -3.66452
C          5.18565       -0.14435       -3.90639
F          5.60680       -1.39613       -4.17759
F          5.47592        0.62760       -4.99001
F          5.87810        0.34084       -2.87014
F          3.05857       -0.27410       -4.89977
F          3.34151        1.17423       -3.27079
F          3.04657       -2.33791       -3.38506
F          1.61967       -0.79996       -2.69821
F          4.78351       -1.57196       -1.28354
F          2.82088       -2.50662       -0.86337
C          3.22808        1.84727       -0.09641
F          2.26405        2.21811       -0.99105
F          3.21748        2.81691        0.88408
F          4.43062        2.00847       -0.74825
H          1.05205       -0.14118       -0.48541
H          2.93912       -1.55769        1.30953
H          4.63921       -0.07030        0.87511
H          2.83906        0.57708        2.17263
