28

S          2.84560        0.91981       -1.97035
B          2.86457        0.05831       -0.25798
S          0.97322       -0.22338        0.19093
O          0.24293        1.05068        0.24022
O          0.33442       -1.36343       -0.48213
C          0.97486       -0.76780        2.03658
F          1.70866       -1.89317        2.22591
F          1.47809        0.19147        2.85170
F         -0.29169       -1.02752        2.44001
C          3.66486       -1.32770       -0.37314
C          4.83062       -1.52861        0.39091
C          5.58882       -2.69754        0.27614
C          5.20358       -3.71164       -0.60812
C          4.04860       -3.53022       -1.36897
C          3.28927       -2.35711       -1.25453
C          3.59208       -4.60514       -2.31903
F          4.49943       -5.61969       -2.44754
F          2.42208       -5.18544       -1.92248
F          3.37126       -4.12350       -3.57679
C          6.84542       -2.89668        1.07579
F          7.08063       -1.89935        1.96714
F          6.82586       -4.06541        1.79124
F          7.95905       -2.97450        0.27726
H          2.15291        2.01746       -1.58726
H          3.25010        0.76912        0.64680
H          5.14516       -0.74979        1.08641
H          5.79290       -4.62269       -0.70176
H          2.38220       -2.23972       -1.84982
