38

C          0.28589       -1.35149       -0.76664
Sb         2.02722        0.03138       -0.92748
C          3.48365       -1.84634       -0.93825
C          3.24626       -2.60655       -2.09756
C          3.95154       -3.77254       -2.40554
C          4.96231       -4.21535       -1.54577
C          5.23952       -3.48200       -0.39755
C          4.50829       -2.31586       -0.07913
C          4.95774       -1.66476        1.21067
O          6.03583       -1.93022        1.72812
O          4.14529       -0.78600        1.82578
C          3.82293        1.39825       -0.88169
C          4.65447        1.31023       -2.15101
C          5.92714        2.17577       -2.07162
C          6.74630        2.18018       -3.34552
C          8.03007        3.06392       -3.29223
F          7.71026        4.36148       -3.06054
F          8.85836        2.65702       -2.30222
F          8.71836        3.01169       -4.45561
F          7.16940        0.91512       -3.68346
F          6.01269        2.65494       -4.41493
H         -0.33420       -0.97092        0.05587
H          0.63192       -2.36777       -0.54036
H         -0.28284       -1.34266       -1.70653
H          2.06246        0.02299        0.92753
H          0.91163        1.43660       -0.93361
H          2.07362       -0.07715       -2.72017
H          2.47920       -2.26113       -2.80100
H          3.72008       -4.33108       -3.31708
H          5.53154       -5.11997       -1.77164
H          6.03382       -3.78494        0.28699
H          3.27580       -0.60282        1.34338
H          4.40060        1.10570        0.00694
H          3.41806        2.41031       -0.72137
H          4.05497        1.62412       -3.02010
H          4.94546        0.26357       -2.33536
H          6.57638        1.82069       -1.25669
H          5.66342        3.22059       -1.84532
