59

C          4.08224       -0.55115       -2.80953
C          4.17518        0.85507       -2.21057
C          4.89476        0.89568       -0.85933
C          4.94907        2.30865       -0.24677
C          5.71432        2.38750        1.06190
S          4.75013        2.45844        2.43584
O          3.39356        1.97714        2.16695
O          5.41828        2.06572        3.67696
C          4.41384        4.34617        2.76655
C          3.34193        4.81316        3.80376
C          3.46193        4.40568        5.32157
C          4.74064        4.82882        6.13066
F          4.96486        6.15601        6.02765
F          4.51884        4.54816        7.44144
F          5.83479        4.16836        5.74691
F          2.40840        5.02068        5.95381
F          3.30513        3.07144        5.45685
F          3.29906        6.19241        3.78304
F          2.11951        4.36959        3.40473
F          5.59624        4.95360        3.10349
F          4.00494        4.89577        1.57480
C          7.15721        2.49923        1.08362
C          7.88290        2.51736       -0.14714
C          9.26972        2.61939       -0.19740
C         10.06308        2.70334        0.96586
C          9.34871        2.68030        2.19020
C          7.96717        2.58423        2.25805
Si        11.91835        2.84467        0.91474
C         12.51308        4.64199        1.20915
C         12.01012        5.26633        2.51496
C         12.54431        6.65683        2.77678
F         12.19269        7.55058        1.80840
F         12.08610        7.16376        3.96028
F         13.91135        6.68684        2.85168
C         12.71187        1.76560        2.25867
C         12.61027        2.34245       -0.77584
H          3.58113       -0.54731       -3.78925
H          3.51593       -1.22332       -2.14690
H          5.08183       -0.99227       -2.94631
H          3.15870        1.26786       -2.08853
H          4.69011        1.52616       -2.92047
H          5.91747        0.49743       -0.97244
H          4.38208        0.23263       -0.14382
H          3.91669        2.64942       -0.09086
H          5.38982        3.00890       -0.97988
H          7.34239        2.44662       -1.09109
H          9.74549        2.62426       -1.18317
H          9.89463        2.72730        3.13849
H          7.48578        2.55980        3.23271
H         12.17999        5.25376        0.35564
H         13.61578        4.64581        1.19158
H         12.29886        4.66242        3.38906
H         10.91230        5.33668        2.52209
H         12.33259        2.01786        3.25965
H         13.80615        1.88093        2.27491
H         12.48087        0.70509        2.08406
H         12.22376        2.98908       -1.57686
H         12.33908        1.30641       -1.02250
H         13.70759        2.41829       -0.78626
