26

C          0.90219        0.06484       -0.10296
C          2.43273        0.02360       -0.06684
C          3.00940       -0.57719        1.22438
N          4.41586       -0.58575        1.23766
C          4.89697       -1.14699        2.43263
C          6.43299       -1.18460        2.48369
C          7.00329       -1.78137        3.77280
C          8.52741       -1.78207        3.82340
N          9.02442       -2.37295        5.08653
H          0.51762        0.49935       -1.04042
H          0.50344        0.66445        0.73140
H          0.47751       -0.94766       -0.00587
H          2.84526        1.04076       -0.18137
H          2.82017       -0.56108       -0.91869
H          2.53903       -1.61443        1.34676
H          2.54224        0.00181        2.09606
H          4.53044       -2.21458        2.62540
H          4.54809       -0.59897        3.37777
H          6.80221       -0.15274        2.34614
H          6.78974       -1.75831        1.61012
H          6.64065       -2.81469        3.90552
H          6.61928       -1.20665        4.63760
H          8.88963       -0.74659        3.65921
H          8.92369       -2.38972        2.99219
H          8.59368       -1.87605        5.87027
H         10.03097       -2.21879        5.17556
