27

S          1.45723        1.01976       -0.84461
B          2.93348        0.07233       -0.15264
S          3.35984       -1.29106       -1.49060
O          2.21454       -2.20186       -1.56076
O          3.89962       -0.72757       -2.72933
C          4.79888       -2.49887       -0.96165
C          4.63504       -3.29543        0.36563
F          3.57453       -4.12565        0.31212
F          5.74163       -4.06055        0.58596
F          4.48688       -2.47693        1.42168
F          4.85694       -3.41616       -1.97263
F          5.97897       -1.83911       -0.92374
S          4.38331        1.20748        0.46583
O          3.83850        2.18923        1.40272
O          5.52982        0.39841        0.88268
C          5.23816        2.30882       -0.91925
C          4.35151        3.27985       -1.75148
C          5.11649        4.25371       -2.72081
F          5.90518        5.11177       -2.04182
F          5.87725        3.58294       -3.60578
F          4.21330        4.98613       -3.41617
F          3.50817        2.54866       -2.52748
F          3.62329        4.06868       -0.91682
F          6.14855        3.04959       -0.22122
F          5.91005        1.49313       -1.76717
H          0.56495        0.44297       -0.01036
H          2.71362       -0.50787        0.87923
