60

C          9.00759       -0.14189       -5.68741
C          8.47768        0.00621       -4.25923
C          9.05961        1.21302       -3.51619
C          8.54296        1.35725       -2.08185
C          9.12490        2.55748       -1.32875
C          8.61797        2.67764        0.11165
C          9.19109        3.87752        0.87538
C          8.68853        3.97907        2.32370
Si         9.29554        5.49061        3.30892
C          8.74358        7.07494        2.46396
C          7.47839        7.15996        1.84513
C          7.04877        8.33948        1.23120
C          7.85362        9.48391        1.21154
C          9.10596        9.40861        1.82999
C          9.54970        8.23141        2.44028
P          7.27775       11.10466        0.29143
C          6.29476       11.87350        1.85602
F          6.34495       11.16467        3.04234
F          6.75060       13.13636        2.18082
F          4.94745       12.03646        1.59761
C          8.20946       10.43527       -1.27850
O          8.03364       11.39682       -2.38613
C          8.60657       11.10299       -3.53857
F          8.17464        9.92415       -4.10832
F          8.33555       12.08954       -4.43547
F          9.97912       10.98875       -3.48183
C          8.56207        5.36602        5.05339
C         11.18519        5.43784        3.45388
H          8.57349       -1.01605       -6.19352
H         10.10163       -0.26107       -5.69432
H          8.77038        0.74599       -6.29252
H          8.69865       -0.91112       -3.68687
H          7.37793        0.09123       -4.28054
H          8.83137        2.13355       -4.08170
H         10.16131        1.13378       -3.50130
H          8.76828        0.43228       -1.52095
H          7.44164        1.43880       -2.09877
H          8.88674        3.48494       -1.87774
H         10.22704        2.48441       -1.32263
H          8.85636        1.74880        0.66110
H          7.51584        2.75031        0.10539
H          8.93975        4.80454        0.33361
H         10.29329        3.81368        0.86684
H          8.97049        3.06972        2.88505
H          7.58408        3.99667        2.32933
H          6.81503        6.28784        1.84021
H          6.06256        8.38334        0.75337
H          9.74393       10.30092        1.83022
H         10.54149        8.21385        2.90375
H          6.03153       10.40234       -0.09802
H          6.84965       12.31949       -0.41217
H          8.50035       11.78342        0.78482
H          7.78607        9.46999       -1.59435
H          9.28711       10.33835       -1.07826
H          7.46348        5.38954        5.01718
H          8.88831        6.21354        5.67315
H          8.86762        4.43626        5.55708
H         11.66798        5.51164        2.46930
H         11.51354        4.49969        3.92584
H         11.56016        6.26783        4.06984
