11

O          0.90849        0.25950       -1.22622
As         2.53742       -0.05722       -0.28027
C          3.30249        1.84142       -0.99596
F          2.48920        2.56480       -1.84287
F          3.58868        2.70301        0.04322
F          4.48560        1.68689       -1.68863
F          4.17255       -0.32031        0.63781
H          0.35399       -0.49354       -0.97065
H          1.99323       -1.45788        0.25721
H          2.06289        0.72035        0.98472
H          3.23493       -0.69587       -1.51768
