37

C          4.98935       -1.22525       -2.64914
C          4.45130       -0.77192       -1.28915
C          4.79969       -1.73282       -0.14838
C          4.26861       -1.27352        1.21034
C          4.61240       -2.19686        2.39732
C          6.08381       -2.40236        2.72585
S          6.88556       -1.26766        3.63928
O          5.94666       -0.25705        4.13227
O          7.92325       -1.79803        4.52022
C          7.97181       -0.20174        2.44059
C          8.68891        1.09022        2.95569
C          9.75725        1.02373        4.11427
C         11.02413        0.11100        3.93733
F         11.66118        0.38633        2.77734
F         11.88455        0.38852        4.95372
F         10.73806       -1.18887        3.98198
F         10.24460        2.30423        4.23673
F          9.16461        0.69753        5.28175
F          9.33795        1.66554        1.88145
F          7.75151        1.98037        3.37825
F          8.93536       -0.99383        1.87272
F          7.16630        0.24324        1.41891
C          6.67696       -3.71403        2.46119
F          6.22738       -4.73769        3.31679
F          6.32638       -4.21057        1.20480
F          8.03240       -3.78243        2.52139
H          4.71997       -0.52237       -3.45204
H          4.59253       -2.21519       -2.92299
H          6.08645       -1.30729       -2.62960
H          3.35457       -0.65414       -1.34841
H          4.85086        0.22840       -1.05087
H          5.89346       -1.84743       -0.08699
H          4.40368       -2.73756       -0.38150
H          3.16730       -1.18317        1.15678
H          4.65007       -0.26416        1.43049
H          4.18418       -3.19501        2.20580
H          4.09396       -1.80741        3.28657
