30

C          4.89637       -0.62320        3.62753
C          4.45201        0.45566        2.63597
C          5.20168        0.40515        1.30181
C          4.76203        1.45597        0.27400
Nb         5.24878        3.65703        0.34024
C          4.03116        5.26711        1.22297
C          2.63189        5.05546        1.81187
C          2.62183        4.33410        3.15890
N          1.25536        4.30067        3.72346
Cl         7.02718        4.91693       -0.66457
H          4.34305       -0.56298        4.57813
H          5.96851       -0.52493        3.86030
H          4.74341       -1.63497        3.21714
H          4.59972        1.45568        3.07378
H          3.36741        0.35847        2.44606
H          5.07154       -0.61813        0.88546
H          6.28146        0.52072        1.50087
H          3.66223        1.39923        0.13171
H          5.17715        1.19143       -0.71991
H          6.60978        2.78407        1.05835
H          4.23392        3.27899       -1.11832
H          5.01199        3.18637        2.01863
H          3.95266        5.92143        0.32623
H          4.67335        5.80961        1.94352
H          1.99306        4.49184        1.11106
H          2.11872        6.03156        1.95547
H          3.35895        4.82281        3.82852
H          2.96581        3.29948        3.02524
H          0.94690        5.25631        3.91892
H          1.26428        3.81599        4.62242
