29

C          4.85037        2.97373        0.29273
C          4.60907        1.49614       -0.03077
C          5.21700        1.05087       -1.36619
C          4.93488       -0.41899       -1.69797
C          5.42386       -0.87496       -3.08963
C          6.94860       -0.93939       -3.26533
Ta         7.66563       -2.14955       -4.96827
S          7.24066        0.14701       -6.01743
O          5.84619        0.61592       -5.99132
O          8.25521        1.10479       -5.55081
F          7.54797        0.10044       -7.67504
O          9.25016       -2.98140       -4.24767
H          4.38868        3.26283        1.24899
H          4.43109        3.62317       -0.49064
H          5.92600        3.19626        0.35964
H          3.52260        1.29942       -0.04650
H          5.01568        0.87034        0.78284
H          6.30494        1.23068       -1.35090
H          4.81845        1.68513       -2.17724
H          3.84296       -0.58444       -1.63853
H          5.38526       -1.06139       -0.91881
H          5.00681       -0.20224       -3.85527
H          4.98551       -1.87009       -3.28395
H          7.38215       -1.59850       -2.47570
H          7.41769        0.04835       -3.14486
H          6.61191       -3.59337       -4.92907
H          8.76518       -1.78196       -6.29796
H          6.88375       -2.41427       -6.53857
H         10.03576       -3.16016       -4.78017
