22

N          2.11450        0.01588       -1.37354
Al         2.54447        0.01746        0.38940
C          3.83873       -1.52929        0.92147
C          4.72856       -2.31479       -0.08847
C          5.86041       -1.48363       -0.77744
C          6.70321       -2.23791       -1.87005
F          7.34229       -3.30922       -1.35827
F          5.94011       -2.64848       -2.90195
F          7.63920       -1.39106       -2.35873
F          5.30343       -0.40757       -1.39946
F          6.74709       -1.04578        0.15292
F          5.33309       -3.38888        0.52196
F          3.92056       -2.81218       -1.07684
F          4.67371       -1.18853        1.98112
F          2.99258       -2.53761        1.42841
S          3.62160        2.13113        1.03293
O          2.79182        3.24426        0.56615
O          4.18992        2.23667        2.37526
F          4.99200        2.23074        0.02596
H          1.37036        0.63653       -1.68400
H          2.83454        0.00868       -2.09094
H          1.32920        0.05962        1.42986
