28

Br         3.03774       -0.47166        1.61648
C          2.64160        0.23074       -0.12463
S          3.60743       -0.27558       -1.39335
O          3.50277        0.60081       -2.55234
O          4.91072       -0.70967       -0.90913
C          2.87164       -1.92541       -2.07529
C          3.42133       -2.54470       -3.40382
C          4.94067       -2.94282       -3.53944
C          5.54660       -4.00466       -2.55239
F          4.81291       -5.13884       -2.54827
F          6.79237       -4.32178       -2.99293
F          5.65283       -3.54726       -1.30443
F          5.06652       -3.49318       -4.79192
F          5.71579       -1.83842       -3.49156
F          2.70270       -3.69280       -3.65950
F          3.17899       -1.68196       -4.42517
F          2.96920       -2.88883       -1.10612
F          1.53970       -1.71809       -2.30976
C          1.34729        0.92564       -0.25698
C          1.21652        2.33871        0.44139
C          2.28439        3.41467        0.04543
F          2.34686        3.59187       -1.28553
F          1.92984        4.60752        0.60463
F          3.50723        3.10440        0.50560
F         -0.00677        2.87964        0.13080
F          1.27385        2.21394        1.79748
F          1.00022        1.14193       -1.56488
F          0.27398        0.20538        0.30948
