18

N          1.14153        0.07228        0.58417
C          2.50504        0.03992        0.23963
C          2.89391       -0.71997       -1.09295
C          4.42284       -0.76389       -1.26710
C          4.97883       -1.13654       -2.60724
C          4.69883       -2.58078       -3.12163
F          3.39538       -2.77635       -3.41718
F          5.40743       -2.84685       -4.25255
F          5.05930       -3.50291       -2.19305
F          4.55596       -0.28183       -3.60767
F          6.38915       -1.02968       -2.61070
H          0.67745        0.73304       -0.05836
H          3.08241       -0.48138        1.04367
H          3.04270        1.04296        0.11926
H          2.42427       -0.19569       -1.94056
H          2.45754       -1.72857       -1.04489
H          4.87079       -1.44125       -0.52185
H          4.82144        0.24841       -1.05560
