44

C          0.67257        0.66811       -0.58472
O          2.04574        0.39596       -0.39656
C          2.86669        1.47462       -0.83554
C          4.32542        1.12064       -0.57975
O          5.09639        2.21433       -1.03046
C          6.50234        2.03805       -0.78946
C          7.20324        3.28861       -1.30424
C          8.74392        3.25983       -1.30588
S          9.32582        3.22787        0.44220
O         10.74613        3.43287        0.59613
O          8.41912        3.97615        1.29652
F          9.05372        1.67964        0.84915
C          9.32806        2.04511       -2.21487
O          8.71284        1.97441       -3.30485
O         10.29828        1.41368       -1.76051
C          9.25761        4.60243       -1.88947
C         10.72279        4.63811       -2.31365
O         10.96633        5.95550       -2.84097
C         12.30562        6.13702       -3.25125
C         12.43070        7.58023       -3.72162
O         13.77927        7.82375       -4.11254
C         13.96912        9.15321       -4.54981
H          0.11240       -0.20624       -0.22810
H          0.43138        0.83952       -1.65209
H          0.35041        1.55995       -0.01164
H          2.60936        2.40379       -0.29029
H          2.71238        1.66487       -1.91551
H          4.59030        0.18930       -1.11927
H          4.48280        0.93485        0.50204
H          6.86935        1.14688       -1.32985
H          6.66554        1.88740        0.29191
H          6.83405        4.16735       -0.75396
H          6.93668        3.39445       -2.36509
H          9.05970        5.43445       -1.19282
H          8.64485        4.77969       -2.78566
H         10.91561        3.87730       -3.09039
H         11.39727        4.44274       -1.46449
H         12.57464        5.44373       -4.07310
H         13.01078        5.95231       -2.41649
H         12.13618        8.26317       -2.90090
H         11.74316        7.75999       -4.57132
H         15.02538        9.25976       -4.82994
H         13.73310        9.88425       -3.75151
H         13.33834        9.38918       -5.42950
