28

C          3.10070        2.07632        1.59710
C          2.57430        1.00540        0.63676
C          3.08671        1.18533       -0.79818
Ga         5.09443        0.97079       -1.04816
C          6.04951       -0.15960        0.42943
C          5.57607       -1.56448        0.43680
O          5.15774       -2.19092        1.40318
O          5.60726       -2.19291       -0.79044
C          6.15297        2.66578       -1.45266
C          7.63721        2.40468       -1.63364
N          8.39595        3.62581       -2.03144
H          2.72222        1.93348        2.62118
H          2.80501        3.08408        1.26283
H          4.19996        2.05507        1.63824
H          1.46634        1.01909        0.66950
H          2.87343        0.01326        1.01402
H          2.78176        2.17636       -1.18181
H          2.61097        0.44227       -1.45913
H          5.37720       -0.05400       -2.32648
H          6.01531        0.25166        1.44472
H          7.08361       -0.12296        0.05252
H          5.67077       -1.47399       -1.47801
H          5.99367        3.43677       -0.68060
H          5.73226        3.06653       -2.39460
H          7.77289        1.57927       -2.36136
H          8.07627        2.05641       -0.68321
H          7.95477        4.00847       -2.87205
H          9.34658        3.36503       -2.31164
