67

C          9.43519       -5.72493        0.15445
C          8.86993       -4.30423        0.08562
C          9.31949       -3.42329        1.25478
C          8.77016       -1.99417        1.21273
C          9.23437       -1.14064        2.39614
C          8.72672        0.30439        2.38368
C          9.23064        1.11270        3.58601
C          8.77220        2.57827        3.62215
Si         9.42835        3.56625        5.11543
C          8.75485        5.31732        5.12441
C          7.39168        5.59193        4.89221
C          6.88361        6.89170        5.00346
C          7.68483        7.99731        5.36269
C          9.04979        7.70363        5.57416
C          9.57559        6.41402        5.45802
Al         7.03037        9.90647        5.65830
C          5.01212       10.03374        5.30552
C          4.19146        9.38565        6.42676
C          2.66879        9.50962        6.37226
O          1.89687        9.00411        7.16387
O          2.19550       10.26179        5.33579
C          8.15104       11.15366        4.51330
C          8.02230       11.03380        2.99476
C          9.09059       11.75442        2.15729
S          9.17630       13.57890        2.35789
C          8.90230        2.67483        6.70664
C         11.32362        3.58901        5.04359
H          9.09942       -6.33902       -0.69318
H          9.12065       -6.23198        1.07919
H         10.53562       -5.71460        0.14404
H          7.76773       -4.34525        0.06493
H          9.17324       -3.83079       -0.86351
H         10.42340       -3.38621        1.27579
H          9.01740       -3.90045        2.20417
H          7.66654       -2.02550        1.19213
H          9.07771       -1.51113        0.26849
H         10.33881       -1.13209        2.42162
H          8.91734       -1.62577        3.33659
H          7.62263        0.31179        2.37299
H          9.04371        0.80092        1.44973
H         10.33414        1.06948        3.59291
H          8.90818        0.60080        4.50941
H          7.66949        2.62746        3.62578
H          9.09007        3.09882        2.70215
H          6.70811        4.77731        4.62651
H          5.81498        7.04088        4.81055
H          9.73385        8.51329        5.85381
H         10.64393        6.25870        5.64030
H          7.24963       10.29086        7.24138
H          4.76781        9.59165        4.32191
H          4.80964       11.12120        5.24746
H          4.49288        9.78922        7.40837
H          4.39860        8.30562        6.50561
H          3.00562       10.54362        4.84739
H          9.20119       10.94126        4.79800
H          7.97894       12.19953        4.82035
H          7.02688       11.38293        2.66409
H          8.07657        9.97072        2.69146
H          8.98521       11.53471        1.08359
H         10.09419       11.42304        2.46709
H          7.90509       13.83636        1.96687
H          7.80611        2.62347        6.77886
H          9.26178        3.22924        7.58531
H          9.29792        1.65002        6.76511
H         11.68225        4.10405        4.14082
H         11.73148        2.56766        5.03736
H         11.74825        4.10771        5.91474
