37

F          2.52126        0.44392        1.04116
C          1.95042        0.05401       -0.14164
C          2.48274       -1.27136       -0.63512
C          2.23944       -2.43855        0.32731
Si         2.93178       -4.11030       -0.30051
C          2.25702       -4.47671       -1.98917
C          3.03376       -5.06860       -3.01356
C          2.52414       -5.36558       -4.27155
C          1.16368       -5.08219       -4.60803
C          0.38221       -4.47816       -3.57450
C          0.90805       -4.19428       -2.32457
N          0.54247       -5.32009       -5.79625
S          1.29625       -6.02468       -7.02459
O          2.39189       -5.23112       -7.60926
O          1.60440       -7.44876       -6.80630
C         -0.04707       -5.98229       -8.22654
C          4.82680       -4.00564       -0.31621
C          2.43857       -5.39048        1.01396
F          0.60254        0.03855        0.07061
F          2.19060        1.06553       -1.03091
H          3.55624       -1.11966       -0.82371
H          2.01212       -1.46611       -1.61024
H          1.15702       -2.55662        0.49596
H          2.68469       -2.22052        1.31168
H          4.08579       -5.30507       -2.82249
H          3.16983       -5.81925       -5.02374
H         -0.66008       -4.24658       -3.80508
H          0.24520       -3.73591       -1.58166
H         -0.31614       -4.93795       -8.41826
H         -0.90038       -6.53746       -7.82352
H          0.33678       -6.45972       -9.13612
H          5.18740       -3.24579       -1.02401
H          5.26999       -4.96635       -0.61496
H          5.21439       -3.75641        0.68293
H          1.34457       -5.48571        1.07262
H          2.81283       -5.11800        2.01315
H          2.84084       -6.38067        0.75623
