30

Cl         3.89716        0.66203        1.59342
Ga         3.50767        1.04122       -0.56729
S          1.07020        0.83332       -0.95047
O          0.20366        1.43779        0.07463
O          0.87594        1.24766       -2.35613
C          0.39457       -1.02220       -1.05568
C          0.52464       -1.91110        0.20491
F         -0.15122       -1.39684        1.24797
F          0.02735       -3.16051       -0.03031
F          1.82169       -2.04814        0.55188
F         -0.92632       -0.93060       -1.37340
F          1.03913       -1.65999       -2.07590
C          4.30394       -0.46325       -1.61803
C          4.89849       -1.56662       -0.98459
C          5.45109       -2.61586       -1.73176
C          5.43245       -2.58202       -3.12847
C          4.84594       -1.48769       -3.76840
C          4.28159       -0.44484       -3.02173
C          4.78696       -1.46463       -5.27250
F          5.86874       -2.07927       -5.84266
F          3.68592       -2.11320       -5.75815
F          4.74496       -0.20212       -5.77588
C          6.12670       -3.77304       -1.04412
F          5.64782       -4.00026        0.20470
F          5.99229       -4.94188       -1.74004
F          7.47756       -3.57054       -0.91011
H          3.66174        2.53784       -0.97777
H          4.92320       -1.60950        0.10669
H          5.86740       -3.39510       -3.70847
H          3.81290        0.38816       -3.54955
