75

C         17.87228       -4.20057        3.52809
C         17.16808       -4.41748        2.18651
C         15.64373       -4.49821        2.31111
C         14.92412       -4.71310        0.97643
C         13.40007       -4.78382        1.10748
C         12.67319       -4.99418       -0.22419
C         11.14766       -5.05428       -0.08277
C         10.40747       -5.25111       -1.41446
Si         8.51278       -5.37911       -1.27894
C          8.02630       -6.84263       -0.19905
C          7.81944       -6.70929        1.18670
C          7.47454       -7.80215        1.98408
C          7.30855       -9.08609        1.43625
C          7.51373       -9.22693        0.05506
C          7.86775       -8.13316       -0.73759
C          6.89214      -10.29025        2.32320
C          5.44810       -9.96695        2.83782
C          4.45353      -11.13478        3.29454
F          5.08480      -12.28071        3.61663
F          3.78468      -10.73677        4.42298
F          3.51325      -11.40105        2.37949
F          5.55154       -9.12683        3.94729
F          4.73018       -9.25056        1.91646
C          6.88240      -11.57244        1.37925
O          8.01234      -12.11299        1.18334
O          5.78646      -11.85955        0.86214
C          7.94220      -10.38677        3.47498
C          7.75269      -11.35153        4.66766
C          7.93575      -12.87002        4.47562
C          9.37847      -13.36001        4.29226
N          9.88915      -13.00735        2.98549
C         10.94545      -13.66847        2.41223
N         11.79155      -14.48273        2.97573
N         11.11542      -13.34408        1.06056
C          7.83110       -3.77499       -0.53566
C          7.81003       -5.59182       -3.02348
H         18.96407       -4.14742        3.41063
H         17.65199       -5.02032        4.22824
H         17.54160       -3.26473        4.00336
H         17.54231       -5.34354        1.71847
H         17.43247       -3.60006        1.49389
H         15.26901       -3.57201        2.78247
H         15.37899       -5.31688        3.00313
H         15.29300       -5.64320        0.50944
H         15.19350       -3.89755        0.28154
H         13.03264       -3.85421        1.57842
H         13.13141       -5.60023        1.80007
H         13.02922       -5.92838       -0.69281
H         12.94286       -4.18117       -0.92226
H         10.80091       -4.12505        0.40300
H         10.88301       -5.87219        0.60840
H         10.76814       -6.17264       -1.90451
H         10.65151       -4.42496       -2.10727
H          7.91504       -5.73027        1.66428
H          7.30658       -7.63749        3.04873
H          7.38668      -10.20407       -0.41067
H          8.00965       -8.30033       -1.80887
H          8.04783       -9.38415        3.91230
H          8.89488      -10.60000        2.97216
H          6.76803      -11.17553        5.12513
H          8.48474      -11.03082        5.43069
H          7.33042      -13.23794        3.63550
H          7.54068      -13.36266        5.37915
H          9.39852      -14.46069        4.42528
H         10.01680      -12.93932        5.09618
H          9.18922      -12.60451        2.32879
H         11.58104      -14.57223        3.97309
H         10.25356      -13.10252        0.57289
H         11.67995      -14.03652        0.58010
H          8.22189       -3.58892        0.47460
H          6.73481       -3.81318       -0.46516
H          8.10154       -2.91068       -1.16043
H          8.20165       -6.49549       -3.51137
H          8.07375       -4.73194       -3.65725
H          6.71408       -5.67469       -3.00084
