25

S          1.71942        1.51499        1.09553
Ga         3.17287        0.22793       -0.20265
C          3.96947       -1.18848        1.14893
C          4.79982       -2.33223        0.51409
C          5.53593       -3.35617        1.44382
F          6.48799       -2.76515        2.19439
F          4.67789       -3.99040        2.27010
F          6.15382       -4.31323        0.69169
F          3.98437       -3.08077       -0.29399
F          5.78249       -1.78086       -0.27495
F          4.80628       -0.58534        2.09417
F          2.96598       -1.81700        1.88931
C          4.61075        1.44567       -0.95977
C          4.33192        2.93416       -0.73386
S          4.76017        3.40278        0.98478
C          3.59585        4.76698        1.25728
H          0.61222        0.92675        0.58583
H          2.32037       -0.56639       -1.28747
H          4.64938        1.25368       -2.04556
H          5.60283        1.17437       -0.56510
H          3.25873        3.15317       -0.85220
H          4.90008        3.58677       -1.41986
H          3.72442        5.09553        2.29719
H          2.56689        4.40373        1.12186
H          3.79437        5.61790        0.58942
