54

N          6.60960        0.42170       -6.07816
C          5.76800        1.49383       -5.72304
N          4.72968        1.87570       -6.40501
N          6.16318        2.13955       -4.58456
C          5.70000        3.46597       -4.21840
C          6.71234        4.58543       -4.56633
C          6.83274        5.67177       -3.48488
C          7.46897        5.16914       -2.18569
Nb         9.50584        4.51594       -1.91415
S          9.91143        2.14810       -2.43956
O         10.58438        1.11584       -1.63641
O          8.44393        1.96809       -2.71245
C         10.57473        1.67776       -4.22095
C         12.11052        1.71859       -4.52337
C         13.06859        0.81386       -3.66040
C         14.47288        0.55031       -4.32733
F         15.05579        1.69751       -4.72738
F         15.28185       -0.03532       -3.41412
F         14.38151       -0.28014       -5.38359
F         13.31634        1.42236       -2.47584
F         12.51987       -0.40675       -3.43776
F         12.27681        1.33690       -5.83754
F         12.54708        2.99931       -4.41009
F         10.12783        0.41210       -4.48616
F          9.99699        2.51039       -5.13650
C         10.76170        6.33187       -1.96500
C         10.14785        7.57722       -2.21549
C         10.88367        8.76970       -2.29845
C         12.27209        8.78065       -2.13257
C         12.89789        7.54702       -1.87645
C         12.16439        6.36445       -1.79714
C         13.07483       10.05456       -2.24438
H          6.12007       -0.34601       -6.52543
H          7.24583        0.09767       -5.35249
H          4.62116        1.28581       -7.23380
H          7.02456        1.84530       -4.12195
H          5.50396        3.46805       -3.13436
H          4.74240        3.62563       -4.73037
H          6.43530        5.04260       -5.52869
H          7.70043        4.12418       -4.71640
H          5.82892        6.09572       -3.28560
H          7.42974        6.50744       -3.88613
H          6.90425        4.32853       -1.73856
H          7.50193        5.97007       -1.41250
H         10.01982        5.04776       -0.33135
H          9.55144        3.36139       -0.57806
H         10.62344        4.48732       -3.27238
H          9.06293        7.64592       -2.35094
H         10.35910        9.71100       -2.49478
H         13.98425        7.51575       -1.74069
H         12.70594        5.43298       -1.60283
H         12.42171       10.93878       -2.22908
H         13.65459       10.09017       -3.18175
H         13.79581       10.15423       -1.41829
