21

O          1.09838        0.14863        0.03968
Ga         2.77454        0.68698       -0.54189
S          3.93710       -1.43003       -1.22414
O          3.38947       -2.07509       -2.43695
O          5.40698       -1.26756       -1.14180
C          3.61065       -2.78134        0.13500
F          3.90768       -2.30547        1.37745
F          2.31858       -3.18466        0.15352
F          4.38251       -3.87442       -0.07805
C          3.79930        1.26797        1.09377
C          2.90487        1.89335        2.16879
C          3.57941        2.33045        3.46788
O          3.04653        3.00271        4.32715
O          4.86582        1.90525        3.63757
H          0.57898       -0.20861       -0.69452
H          2.84057        1.44858       -1.91945
H          4.58829        1.96384        0.76738
H          4.28789        0.34884        1.45974
H          2.10378        1.19381        2.45869
H          2.37388        2.78267        1.79649
H          5.10082        1.40680        2.82500
