61

S          0.37954       -4.05066       -1.06841
C          2.13133       -4.63039       -0.97874
C          3.01820       -3.71724       -1.82815
C          4.50134       -4.09639       -1.76160
Ga         5.65094       -2.83371       -2.85722
C          5.41059       -3.35386       -4.86360
F          4.09050       -3.32158       -5.30842
F          6.08833       -2.53677       -5.76440
F          5.83980       -4.63805       -5.18664
C          7.63379       -3.00947       -2.49385
C          8.16611       -3.91437       -1.55450
C          9.54199       -4.04127       -1.34079
C         10.46941       -3.26409       -2.06594
C          9.94599       -2.34495       -2.99714
C          8.56768       -2.22223       -3.19548
Si        12.30607       -3.55956       -1.86684
C         12.64391       -5.39638       -2.27662
C         12.05129       -5.81287       -3.63034
C         12.24856       -7.28557       -3.93739
C         11.55235       -7.83793       -5.23446
C         11.86533       -7.19294       -6.63899
C         13.32976       -7.19394       -7.24187
C         14.04245       -8.57732       -7.47534
C         15.33407       -8.50248       -8.37561
F         15.03817       -8.18446       -9.64727
F         16.21148       -7.60267       -7.89284
F         15.92251       -9.71713       -8.37199
F         14.42595       -9.09682       -6.28507
F         13.18801       -9.43965       -8.08460
F         13.21745       -6.58544       -8.45880
F         14.12679       -6.42228       -6.45951
F         11.06292       -7.81971       -7.54057
F         11.50189       -5.88137       -6.59435
F         11.81489       -9.17461       -5.34131
F         10.20942       -7.68622       -5.07085
F         13.58887       -7.60318       -4.02569
F         11.73701       -8.06631       -2.92449
C         13.30884       -2.47193       -3.04831
C         12.89509       -3.25755       -0.09350
H         -0.16872       -5.03375       -0.31534
H          2.17946       -5.66514       -1.34540
H          2.45465       -4.61103        0.07170
H          2.88277       -2.67457       -1.49337
H          2.66427       -3.74846       -2.87181
H          4.64550       -5.13073       -2.11765
H          4.84471       -4.07211       -0.71187
H          5.17656       -1.31452       -2.72725
H          7.48795       -4.55015       -0.97599
H          9.89778       -4.77001       -0.60273
H         10.62476       -1.71896       -3.58530
H          8.20889       -1.49858       -3.93384
H         12.19778       -6.00536       -1.47498
H         13.72848       -5.58859       -2.25397
H         12.50715       -5.23938       -4.44967
H         10.97087       -5.60502       -3.65815
H         13.03774       -2.64725       -4.09912
H         14.38529       -2.67022       -2.93954
H         13.14195       -1.40539       -2.84014
H         12.30631       -3.84996        0.62125
H         12.77383       -2.19871        0.17617
H         13.95484       -3.52389        0.03427
