14

Cl         1.14241       -0.72901        0.54431
Ga         3.32046       -0.36847       -0.04076
C          4.08472        0.93552        1.42850
C          3.92098        2.47593        1.33421
C          2.46121        3.03518        1.33272
F          1.78751        2.68722        2.44575
F          2.50271        4.39984        1.29180
F          1.77255        2.62178        0.25758
F          4.56660        3.11756        2.37453
F          4.50507        2.91543        0.17456
F          3.67043        0.59019        2.71365
F          5.48272        0.76542        1.43807
H          3.34597        0.32525       -1.46006
H          4.10686       -1.72024        0.18455
