29

N          2.47224        2.14919        1.77697
In         3.18850        0.62647        0.36083
C          4.42021       -0.74374        1.63652
C          5.80817       -0.56404        1.75965
C          6.59687       -1.38786        2.57884
C          6.01488       -2.43093        3.30061
C          4.63675       -2.63239        3.18997
C          3.85090       -1.80147        2.37445
C          3.98390       -3.73141        3.98732
F          4.88657       -4.65670        4.44486
F          3.34168       -3.25399        5.09632
F          3.05705       -4.41751        3.26962
C          8.08106       -1.16611        2.64062
F          8.40759        0.15348        2.77970
F          8.68058       -1.82491        3.67524
F          8.71857       -1.58980        1.50188
C          1.09504       -0.15266        0.09371
C          0.50967       -0.48459        1.42743
O          0.11135       -1.60758        1.73862
O          0.44593        0.52757        2.32432
H          2.40041        3.08167        1.36627
H          3.07321        2.25044        2.59732
H          4.06881        1.28814       -1.01608
H          6.30256        0.24062        1.20764
H          6.62142       -3.07530        3.93422
H          2.77493       -1.99155        2.31955
H          1.00628       -1.00816       -0.58305
H          0.59553        0.72633       -0.34019
H          1.13755        1.27870        2.09248
