40

C          3.47220        1.18783       -1.21205
C          2.75908        0.13631       -0.34960
In         3.07210       -2.01962       -0.97192
C          1.46226       -2.61492       -2.51034
C          0.47831       -1.56126       -3.04369
C          0.95483       -0.61234       -4.13986
O          0.18182        0.11336       -4.77522
N          2.29561       -0.63210       -4.39089
C          5.18992       -2.18436       -1.83193
C          5.47114       -1.69911       -3.25717
C          6.94542       -1.80442       -3.69327
C          7.19842       -1.37311       -5.13909
N          8.62002       -1.45154       -5.46387
C          9.10185       -1.20834       -6.73500
N          8.45414       -0.78721       -7.76963
N         10.48031       -1.47692       -6.85310
H          3.36019        2.22333       -0.83363
H          3.09019        1.19215       -2.24536
H          4.55558        0.99321       -1.27883
H          1.67556        0.34322       -0.33143
H          3.09863        0.21699        0.69643
H          2.93865       -3.15676        0.40501
H          0.88679       -3.34755       -1.92247
H          1.88721       -3.18917       -3.35168
H          0.13113       -0.89904       -2.23032
H         -0.44625       -2.00359       -3.46002
H          2.91357       -1.13145       -3.75764
H          2.67665        0.07502       -5.00793
H          5.48647       -3.24384       -1.74159
H          5.82989       -1.62543       -1.12544
H          5.16595       -0.64206       -3.36888
H          4.86096       -2.27194       -3.98048
H          7.28044       -2.84968       -3.56380
H          7.56554       -1.18979       -3.01865
H          6.86161       -0.33297       -5.28622
H          6.60189       -2.00582       -5.82508
H          9.14374       -2.13611       -4.92571
H          7.44831       -0.75732       -7.58408
H         11.03280       -1.10622       -6.08276
H         10.81919       -1.13491       -7.74917
