91

C         11.60984        4.21400        2.75878
C         10.98365        2.96638        2.13159
C         11.00654        2.98311        0.60005
C         10.38756        1.73845       -0.04247
C         10.41702        1.75872       -1.57381
C          9.82417        0.50476       -2.22346
C          9.85677        0.53397       -3.75700
C          9.30321       -0.73721       -4.41757
Si         9.28077       -0.75972       -6.32496
C          8.75073       -2.44641       -6.93864
C          7.57696       -2.65525       -7.69179
C          7.21755       -3.92656       -8.14457
C          7.99622       -5.07964       -7.89370
C          9.16581       -4.85267       -7.13373
C          9.53510       -3.58728       -6.67124
B          7.61784       -6.52774       -8.53911
C          6.01643       -6.81581       -8.61099
C          5.45615       -7.51663       -9.70325
C          4.10106       -7.84211       -9.77704
C          3.20277       -7.48246       -8.74796
C          3.74476       -6.78378       -7.65046
C          5.10435       -6.46210       -7.59190
Si         1.39522       -7.94182       -8.86396
C          1.23777       -9.83288       -9.09313
C          1.95370      -10.64083       -8.00538
C          1.84067      -12.13862       -8.17926
F          2.35865      -12.57277       -9.36387
F          2.49993      -12.81671       -7.19369
F          0.54294      -12.57430       -8.14283
C          0.45519       -7.43795       -7.29852
C          0.55928       -7.14404      -10.36562
C          8.38295       -7.80867       -7.81700
C          8.01250       -8.08410       -6.35313
C          8.79661       -9.27257       -5.77143
C          8.49019       -9.57671       -4.32126
C          9.28477      -10.77791       -3.72229
F          9.02298      -11.91954       -4.40325
F         10.62034      -10.55412       -3.78706
F          8.96637      -10.98989       -2.42487
F          8.77190       -8.50053       -3.50525
F          7.15776       -9.87919       -4.13452
C          8.09566        0.58792       -6.93830
C         11.02620       -0.35897       -6.95708
H         11.58670        4.17294        3.85721
H         11.07619        5.12493        2.44768
H         12.66049        4.32765        2.45146
H          9.94119        2.86236        2.47729
H         11.51221        2.06739        2.49133
H         12.05036        3.08990        0.25492
H         10.47673        3.88264        0.23904
H          9.34338        1.63151        0.30044
H         10.91763        0.84004        0.31989
H         11.46024        1.88396       -1.91462
H          9.87327        2.64948       -1.93573
H          8.78131        0.37157       -1.88550
H         10.37197       -0.38569       -1.86801
H         10.89810        0.69949       -4.08428
H          9.29099        1.41666       -4.10467
H          8.26960       -0.92166       -4.07555
H          9.88198       -1.61521       -4.08084
H          6.92933       -1.80652       -7.93477
H          6.29839       -4.03309       -8.72849
H          9.82186       -5.69733       -6.90246
H         10.45908       -3.48982       -6.08901
H          8.03345       -6.49263       -9.70937
H          6.11868       -7.80380      -10.52580
H          3.73404       -8.38076      -10.65892
H          3.09388       -6.48164       -6.82357
H          5.47252       -5.90617       -6.72442
H          1.65873      -10.08942      -10.07860
H          0.16964      -10.10234       -9.12883
H          1.55418      -10.41719       -7.00469
H          3.02718      -10.40047       -7.98329
H          0.87732       -7.90300       -6.39647
H         -0.60235       -7.73260       -7.36824
H          0.49005       -6.34887       -7.15323
H          1.09353       -7.40111      -11.29147
H          0.56703       -6.04854      -10.27441
H         -0.48559       -7.47181      -10.47311
H          9.47906       -7.66510       -7.88474
H          8.17550       -8.72054       -8.40767
H          6.93367       -8.28895       -6.27312
H          8.20541       -7.19034       -5.73908
H          9.87930       -9.08446       -5.84645
H          8.58826      -10.18485       -6.35221
H          7.07161        0.41662       -6.57645
H          8.06173        0.61320       -8.03687
H          8.41403        1.58176       -6.59080
H         11.74677       -1.12114       -6.62634
H         11.38268        0.62065       -6.60552
H         11.03856       -0.35198       -8.05639
