24

C          1.05507       -0.10716        0.09858
C          2.57790        0.00058       -0.02200
C          3.05114        1.37112       -0.51728
C          4.57450        1.50454       -0.61622
C          5.07269        2.91610       -0.99656
C          4.80344        3.99400        0.05556
In         5.62336        6.01708       -0.38062
I          4.20741        6.87016       -2.74727
S          8.06756        5.79001       -1.00879
H          0.74067       -1.08951        0.48182
H          0.56775        0.04282       -0.87696
H          0.65939        0.66024        0.78126
H          2.95144       -0.78739       -0.69920
H          3.03834       -0.20353        0.96023
H          2.66093        2.14833        0.16080
H          2.60293        1.57919       -1.50559
H          4.94855        0.76901       -1.35336
H          5.02241        1.22052        0.35414
H          4.61814        3.21007       -1.95946
H          6.15809        2.85186       -1.18521
H          5.24835        3.69905        1.02189
H          3.72442        4.13316        0.22142
H          5.50988        7.31905        0.79742
H          7.83813        4.85068       -1.95584
