40

C          4.14883       -6.63962        0.21176
C          4.24772       -5.51571        1.24575
C          5.16600       -4.36791        0.81454
C          5.37366       -3.30963        1.89998
C          6.35055       -2.19049        1.51742
C          6.70796       -1.27702        2.69291
In         7.65983       -2.34600        4.43762
C          6.04756       -2.65046        5.99542
C          6.36770       -3.65386        7.07921
O          7.57629       -3.26419        7.74844
C          8.06503       -4.24275        8.63064
C          9.32943       -3.72432        9.28758
O          8.99616       -2.82113       10.34183
C         10.11740       -2.09076       10.79204
F          8.98927       -0.92658        5.15554
H          3.49097       -7.45355        0.55093
H          5.14031       -7.07386        0.01086
H          3.75449       -6.26739       -0.74663
H          4.62030       -5.92742        2.19884
H          3.24119       -5.11844        1.46247
H          4.76393       -3.89835       -0.10208
H          6.15115       -4.78330        0.53600
H          5.75132       -3.80966        2.80900
H          4.40109       -2.86712        2.18404
H          5.91383       -1.63040        0.66196
H          7.27166       -2.65954        1.12585
H          5.80180       -0.77015        3.07019
H          7.40192       -0.48239        2.37746
H          8.61149       -3.80874        4.04849
H          5.15618       -2.99703        5.44522
H          5.79151       -1.67483        6.43881
H          6.50936       -4.66504        6.63931
H          5.57062       -3.75177        7.85566
H          8.30496       -5.17965        8.08162
H          7.31825       -4.49967        9.41348
H          9.93710       -3.20984        8.51993
H          9.92052       -4.57151        9.69464
H          9.76986       -1.41626       11.58641
H         10.56430       -1.48860        9.97883
H         10.90424       -2.75425       11.20684
