29

Cl         1.45429        0.15768       -1.00548
In         3.21771        0.07164        0.79243
C          4.37542       -1.76890        0.24768
C          3.80234       -2.88112       -0.39541
C          4.54663       -4.02752       -0.70646
C          5.91085       -4.11462       -0.39552
C          6.50532       -3.00579        0.22571
C          5.75133       -1.86799        0.53639
C          6.71590       -5.35360       -0.71399
C          4.51856        1.84992        0.41042
C          5.04057        1.93147       -1.02586
C          5.96719        3.11632       -1.34174
N          5.26981        4.41089       -1.20682
H          2.33429       -0.01056        2.32138
H          2.74443       -2.85240       -0.67433
H          4.05976       -4.87583       -1.20095
H          7.57350       -3.03535        0.46934
H          6.26617       -1.02862        1.01770
H          6.08894       -6.12567       -1.18234
H          7.16152       -5.79111        0.19396
H          7.54731       -5.13502       -1.40351
H          5.36858        1.79859        1.11473
H          3.95543        2.75823        0.66920
H          4.19018        1.96062       -1.73265
H          5.59362        1.01127       -1.28224
H          6.39833        2.96787       -2.35573
H          6.81293        3.11888       -0.63172
H          4.41121        4.38478       -1.76212
H          5.84077        5.16291       -1.59563
