22

C          0.97597        0.32559       -0.12439
C          2.44498        0.16072        0.30631
C          2.72362       -1.09414        1.10278
C          2.56119       -2.41367        0.53492
C          3.08861       -2.88985       -0.89987
C          4.63266       -2.95146       -1.19539
C          5.52913       -3.99967       -0.44036
F          5.03777       -5.25195       -0.55825
F          6.76433       -3.99357       -1.02005
F          5.69179       -3.71709        0.85395
F          4.76769       -3.27281       -2.52963
F          5.19831       -1.73126       -1.01653
F          2.60822       -4.14079       -1.26565
F          2.60483       -2.00731       -1.83999
F          2.99491       -3.43880        1.37838
F          1.14891       -2.64628        0.29908
Br         4.40474       -0.88270        2.12273
H          0.82706        1.31046       -0.59790
H          0.31142        0.24437        0.74806
H          0.66901       -0.44385       -0.84393
H          2.69662        1.00734        0.96410
H          3.08772        0.29701       -0.59627
