45

C          0.96745       -0.38775        0.40266
C          2.48198       -0.16377        0.40316
C          2.90437        1.16561       -0.23008
C          4.41939        1.38665       -0.25262
C          4.84202        2.72833       -0.86094
C          6.36829        2.86978       -0.91932
C          6.99862        4.22831       -1.32037
C          6.54935        4.66735       -2.76344
C          5.16853        5.37454       -2.76896
C          4.41630        5.24229       -4.09710
C          7.55061        5.58352       -3.49319
C          6.65564        5.37593       -0.25652
O          6.04135        5.02107        0.78458
O          7.07206        6.52688       -0.56767
C          8.53916        4.05706       -1.21029
C          9.19217        2.96934       -2.06794
N         10.66567        3.06693       -1.96986
H          0.69466       -1.35004        0.86112
H          0.56684       -0.38010       -0.62301
H          0.44973        0.40710        0.96103
H          2.97599       -0.99281       -0.13302
H          2.86135       -0.20658        1.43850
H          2.42477        1.99734        0.31552
H          2.51201        1.21562       -1.26216
H          4.89632        0.55757       -0.80928
H          4.81128        1.32585        0.77815
H          4.44292        3.54980       -0.24674
H          4.40308        2.80918       -1.87089
H          6.74798        2.08302       -1.60066
H          6.75360        2.63613        0.08672
H          6.44272        3.73805       -3.36100
H          5.33501        6.43407       -2.52238
H          4.53658        4.98632       -1.96090
H          5.00368        5.62584       -4.94607
H          3.46706        5.79996       -4.07908
H          4.17723        4.18832       -4.31585
H          7.74808        6.45908       -2.85833
H          7.13167        5.92488       -4.45333
H          8.50469        5.08563       -3.71998
H          8.78454        3.85467       -0.15445
H          9.00167        5.02953       -1.44250
H          8.82721        3.04128       -3.11136
H          8.90801        1.96935       -1.70407
H         10.94929        4.01616       -2.22387
H         11.10502        2.44591       -2.65214
