34

C          3.07052       -0.49454       -1.39577
C          2.62125        0.14384       -0.07526
C          2.90071       -0.84264        1.09695
C          2.47803       -0.43833        2.50363
C          1.07215       -0.23786        2.76297
C          0.04309       -1.35427        2.35746
C          0.22470       -2.79949        2.96821
C          0.24708       -2.97472        4.52686
F         -0.82271       -2.39282        5.10628
F          0.18417       -4.30905        4.80207
F          1.36415       -2.49789        5.07767
F         -0.84386       -3.54487        2.52750
F          1.35036       -3.38558        2.48434
F         -1.22661       -0.96870        2.70883
F          0.03500       -1.55535        1.00098
F          0.75501        0.05901        4.07250
F          0.45838        0.92328        2.02877
C          3.42278        0.08237        3.46169
C          4.93272       -0.27486        3.27362
F          5.49966        0.30179        2.17982
F          5.65892        0.14126        4.34171
F          5.13421       -1.61788        3.16928
F          3.49641        1.55572        3.59825
F          3.17540       -0.27377        4.80031
C          3.27156        1.51661        0.11878
H          2.58172       -1.46817       -1.55795
H          4.16063       -0.66475       -1.39684
H          2.83450        0.14961       -2.25736
H          1.53195        0.29750       -0.12219
H          3.97630       -1.06632        1.08685
H          2.42677       -1.79870        0.81685
H          4.37023        1.44031        0.10978
H          2.97364        1.95931        1.07741
H          2.97567        2.20584       -0.68801
