17

Br         1.44592        0.81270        0.90034
In         3.33075       -0.59138       -0.10559
S          4.30400        0.75964       -2.19373
O          5.31658       -0.06978       -2.87683
O          3.24499        1.37649       -3.01292
C          5.33131        2.29149       -1.61127
F          4.58981        3.09577       -0.81426
F          6.42632        1.90952       -0.91448
F          5.74345        3.01528       -2.67736
C          4.90660       -0.63965        1.55138
C          6.13483       -1.53990        1.30593
F          6.81112       -1.13712        0.20855
F          7.01236       -1.54580        2.34821
F          5.74155       -2.82611        1.10793
F          5.39844        0.61631        1.85467
F          4.31591       -1.11790        2.71800
H          2.80641       -2.05360       -0.88296
