38

C          0.44182        0.01530       -2.58094
C          1.66209       -0.84488       -2.24081
C          2.96588       -0.31071       -2.84145
C          4.22323       -1.09251       -2.42617
C          5.50889       -0.59136       -3.07662
Ta         7.55140       -1.20111       -2.64086
C          9.01958       -0.22537       -1.15782
C         10.56315       -0.38611       -1.28342
F         11.03336       -0.05874       -2.52232
F         11.26281        0.39500       -0.40267
F         10.94076       -1.66897       -1.04927
F          8.81769        1.18490       -1.28388
F          8.82650       -0.46292        0.20763
C          8.54516        0.11151       -4.14529
C          9.25104       -0.63914       -5.28618
C          9.52223        0.28251       -6.48041
S         10.22348       -0.52872       -7.97963
H         -0.48561       -0.39934       -2.15810
H          0.30475        0.09775       -3.67030
H          0.55954        1.03726       -2.18882
H          1.49763       -1.87784       -2.59258
H          1.77020       -0.91267       -1.14482
H          3.09619        0.74645       -2.54638
H          2.88443       -0.30631       -3.94375
H          4.07915       -2.16067       -2.66591
H          4.33140       -1.03965       -1.32967
H          5.58258        0.51165       -2.95558
H          5.46845       -0.76775       -4.17943
H          8.19862       -2.42321       -1.52130
H          6.83296       -0.80355       -1.07923
H          7.42590       -2.85313       -3.36441
H          9.17180        0.93061       -3.77012
H          7.62916        0.59063       -4.55777
H          8.65868       -1.50043       -5.63816
H         10.21108       -1.05114       -4.93296
H         10.17732        1.11603       -6.19066
H          8.58041        0.72026       -6.84538
H         11.34642       -1.00202       -7.38967
