9

Br         1.20366       -0.01570       -0.28993
N          3.10452        0.12308        0.01089
S          3.38316        1.01173        1.32680
O          3.07574        2.45411        1.23241
O          2.99852        0.41793        2.62425
C          5.19255        0.86834        1.21779
H          5.53407        1.29780        0.27056
H          5.47889       -0.18476        1.30272
H          5.57551        1.44633        2.06786
