43

S          2.63682        0.07317        3.21038
C          3.56974       -0.00390        1.61211
C          4.13759       -1.41228        1.40376
C          4.85431       -1.56647        0.05919
In         5.67551       -3.65191       -0.29866
C          4.13374       -4.92610        0.82074
C          2.93302       -5.13426        0.10951
C          1.81865       -5.78379        0.65209
C          1.86983       -6.28760        1.95563
C          3.04755       -6.14139        2.68651
C          4.15616       -5.46484        2.12973
C          5.36804       -5.31259        2.99960
O          6.02376       -4.30848        3.15521
O          5.72434       -6.45826        3.69573
C          7.80567       -3.73388        0.44594
C          8.22019       -2.49183        1.24116
C          9.72662       -2.48263        1.59093
C         10.20864       -1.22069        2.27787
C         11.74931       -1.14992        2.51869
F         12.17044       -2.18105        3.29017
F         12.42494       -1.20898        1.34422
F         12.10715       -0.00092        3.13803
F          9.90492       -0.09130        1.54247
F          9.62576       -1.05678        3.51535
H          2.26777        1.37409        3.13524
H          4.37839        0.73970        1.64390
H          2.88049        0.25524        0.79620
H          3.31116       -2.13898        1.47982
H          4.81926       -1.64981        2.23729
H          5.69178       -0.85073       -0.00870
H          4.16527       -1.32717       -0.76841
H          5.49573       -4.17971       -1.99857
H          2.86250       -4.75937       -0.91712
H          0.90369       -5.89009        0.06264
H          1.00226       -6.77702        2.40292
H          3.08718       -6.50745        3.71787
H          5.14299       -7.17396        3.38197
H          8.45413       -3.85030       -0.43952
H          7.94006       -4.63628        1.06318
H          7.63773       -2.43285        2.17243
H          7.99535       -1.57658        0.67154
H         10.32093       -2.60403        0.67180
H          9.97028       -3.33005        2.25017
