37

C          0.70185       -0.37012        0.64846
C          2.22469       -0.43210        0.50113
C          2.68921       -0.87983       -0.88910
C          4.21116       -0.97087       -1.03698
C          4.68510       -1.41894       -2.42308
C          6.22167       -1.57012       -2.53371
C          6.73207       -1.92788       -3.90638
S          6.99198       -3.53297       -4.25981
O          6.21569       -4.41106       -3.34972
O          6.94329       -3.79005       -5.71880
C          8.71370       -4.07528       -3.86124
C          6.83759       -0.87684       -4.97787
C          7.92041        0.21294       -4.76492
C          9.35097       -0.32716       -4.80654
H          0.39872       -0.04720        1.65581
H          0.24658       -1.35503        0.46233
H          0.26180        0.33432       -0.07434
H          2.63870       -1.12079        1.25767
H          2.65751        0.55805        0.72636
H          2.28792       -0.18265       -1.64707
H          2.24413       -1.86374       -1.12093
H          4.60306       -1.67443       -0.27910
H          4.65852        0.01138       -0.79391
H          4.33247       -0.69774       -3.18192
H          4.23788       -2.39201       -2.68116
H          6.52873       -2.33490       -1.79983
H          6.68135       -0.61994       -2.18388
H          8.90571       -3.87629       -2.79854
H          9.41383       -3.51329       -4.49180
H          8.79834       -5.15243       -4.06523
H          5.87069       -0.33838       -5.10533
H          7.01980       -1.37693       -5.94292
H          7.74957        0.71142       -3.79403
H          7.79699        0.99795       -5.53520
H          9.47487       -1.11929       -4.05399
H         10.09745        0.45877       -4.60984
H          9.57552       -0.77082       -5.78985
