30

N          1.20268        3.97204       -1.49934
C          2.57299        4.22143       -1.76297
N          3.05443        4.82601       -2.79787
N          3.38818        3.70594       -0.78262
C          4.84587        3.68953       -0.90476
C          5.45321        3.13522        0.38366
C          6.97600        2.90532        0.34947
C          7.83135        4.17495        0.17542
Ta         9.98183        3.70214        0.31213
S          9.37592        4.26162        2.69705
O          9.11212        5.69877        2.84592
O          8.38055        3.34854        3.27971
F         10.68461        4.03646        3.72264
S         11.21598        5.09123       -1.17006
H          0.58885        4.52470       -2.09053
H          0.95109        4.08254       -0.51825
H          2.30190        5.23579       -3.35854
H          2.99810        2.92060       -0.26963
H          5.18336        4.71605       -1.10092
H          5.15788        3.08258       -1.77509
H          4.96509        2.16718        0.60980
H          5.21108        3.81229        1.21896
H          7.20625        2.17638       -0.44722
H          7.23858        2.42357        1.30433
H          7.45620        4.99640        0.80320
H          7.78832        4.53443       -0.87745
H         10.16128        2.13700       -0.53649
H         11.29680        4.45186        1.20730
H         10.73430        2.53713        1.39863
H         10.41031        4.84640       -2.24926
