37

C          0.57186        1.22376        0.05231
C          1.92024        0.49998       -0.07700
C          2.82130        1.04625       -1.16807
As         4.58722       -0.01459       -1.38115
C          6.26914       -1.30511       -1.51240
C          6.43171       -1.91876       -2.76064
C          7.49169       -2.78490       -3.03972
C          8.44195       -3.05324       -2.04741
C          8.29916       -2.46585       -0.79311
C          7.21381       -1.61060       -0.50953
C          7.16207       -1.13130        0.92523
O          8.17571       -0.99507        1.59856
O          5.95716       -0.93822        1.48445
C          5.21534        1.17158       -2.97663
C          6.18582        2.23660       -2.52078
N          6.64388        3.09960       -3.64258
H         -0.05100        0.79086        0.85251
H          0.00018        1.16379       -0.88706
H          0.71488        2.29178        0.27919
H          1.73864       -0.57345       -0.26427
H          2.45068        0.54115        0.88993
H          3.10736        2.09360       -0.97371
H          2.33683        0.98496       -2.15675
H          5.36305        0.91599       -0.33757
H          3.86026       -1.05016       -2.39349
H          4.11615       -1.00419       -0.06556
H          5.68012       -1.72223       -3.53506
H          7.57959       -3.24932       -4.02642
H          9.28106       -3.72328       -2.24763
H          9.01785       -2.65944        0.00581
H          5.19319       -1.03763        0.81351
H          4.31180        1.61012       -3.42608
H          5.68520        0.50572       -3.71600
H          7.02855        1.74687       -1.99350
H          5.70212        2.89403       -1.77874
H          7.02457        2.49454       -4.37452
H          7.42778        3.67885       -3.32775
