47

C          2.94787       -1.97281        1.49827
P          3.07892       -0.71820        0.03644
C          3.42113        0.58610       -1.38270
C          4.15344        0.21160       -2.51935
C          4.49719        1.12637       -3.51286
C          4.10540        2.47325       -3.38608
C          3.37701        2.87416       -2.25489
C          3.04956        1.93397       -1.27411
C          4.48894        3.46211       -4.44033
C          3.70253        3.42180       -5.80761
C          2.14232        3.64405       -5.82841
C          1.49687        5.02926       -5.40719
C          1.95836        6.33561       -6.15627
C          0.97442        7.55644       -5.98714
F          0.67181        7.76849       -4.69335
F          1.58103        8.66294       -6.46994
F         -0.16529        7.37376       -6.67744
F          3.16160        6.73027       -5.67861
F          2.06240        6.10505       -7.49196
F          0.15671        4.88418       -5.64536
F          1.66587        5.21859       -4.07839
F          1.74119        3.41193       -7.11557
F          1.55564        2.71532       -5.03536
F          4.24183        4.34423       -6.66616
F          3.89139        2.19063       -6.36340
F          4.39605        4.76405       -3.99306
F          5.80779        3.28179       -4.83745
C          1.15207       -0.76982       -0.32943
C          0.27014        0.09807        0.56028
C         -1.23663       -0.14141        0.38923
H          3.18416       -2.98567        1.13122
H          1.95060       -1.99209        1.96658
H          3.68927       -1.68910        2.26034
H          2.91595        0.42342        0.99090
H          4.56939       -0.69346        0.23577
H          3.25039       -1.79931       -0.98622
H          4.46641       -0.83531       -2.61082
H          5.08330        0.81145       -4.37871
H          3.07906        3.91767       -2.14149
H          2.50459        2.25949       -0.38176
H          0.87180       -1.83375       -0.22615
H          1.01295       -0.50327       -1.39158
H          0.48616        1.16246        0.36706
H          0.54539       -0.06452        1.61784
H         -1.55227        0.04925       -0.64826
H         -1.83985        0.50626        1.04859
H         -1.49500       -1.18678        0.62053
