59

N          2.35607       -0.64254       -4.43786
C          1.89255       -0.65196       -3.03292
Al         2.72943        0.74649       -1.86193
S          1.65720        2.92323       -2.25015
O          0.21061        2.90537       -1.95109
O          2.46562        4.01042       -1.65004
C          1.68253        3.40653       -4.12608
F          2.92821        3.25878       -4.64855
F          0.83490        2.64867       -4.85745
F          1.31996        4.70432       -4.28527
C          4.70007        0.99467       -2.18921
C          5.50254       -0.11996       -2.51565
C          6.89054       -0.02747       -2.66730
C          7.56052        1.20035       -2.50383
C          6.76702        2.32208       -2.18763
C          5.38152        2.22087       -2.03421
Si         9.42060        1.34833       -2.72567
C          9.83465        1.67353       -4.55786
C         11.32127        1.87979       -4.88483
C         11.60603        2.13184       -6.37105
C         13.08974        2.35614       -6.67806
C         13.38653        2.62004       -8.15716
C         14.86989        2.86098       -8.45146
C         15.17195        3.13706       -9.92736
C         16.65578        3.38912      -10.20372
C         10.09195        2.77654       -1.67639
C         10.27829       -0.25420       -2.18460
H          2.16416       -1.52786       -4.91014
H          3.36404       -0.49609       -4.48963
H          2.05138       -1.62850       -2.52168
H          0.80033       -0.49205       -3.01864
H          2.30632        0.66075       -0.30439
H          5.03657       -1.10372       -2.64746
H          7.45730       -0.93251       -2.91011
H          7.23868        3.30009       -2.04839
H          4.81184        3.12066       -1.78527
H          9.25357        2.55595       -4.87758
H          9.43200        0.82980       -5.14532
H         11.90302        0.99918       -4.55940
H         11.71621        2.73041       -4.30220
H         11.02514        3.00895       -6.70622
H         11.23151        1.27788       -6.96246
H         13.66814        1.47669       -6.34270
H         13.45942        3.20628       -6.07742
H         12.80234        3.49422       -8.49474
H         13.02827        1.76686       -8.75986
H         15.45545        1.98521       -8.11898
H         15.22817        3.71079       -7.84345
H         14.58168        4.00753      -10.26022
H         14.82219        2.28508      -10.53468
H         17.02387        4.25578       -9.63421
H         16.84358        3.58585      -11.26880
H         17.26676        2.52126       -9.91246
H          9.66332        3.74139       -1.98266
H         11.18564        2.85436       -1.76213
H          9.84571        2.62624       -0.61569
H          9.93745       -1.11480       -2.77807
H         10.06324       -0.47284       -1.12901
H         11.36979       -0.18109       -2.29931
