34

C          0.91210        0.25455       -0.68424
C          2.40926        0.05132       -0.41316
C          3.21704       -0.35143       -1.64613
P          5.17419       -0.13402       -1.51388
C          5.17789       -1.24946        0.18101
C          6.48675       -1.91651        0.38400
O          7.23026       -1.80006        1.34902
O          6.88039       -2.71339       -0.66714
C          5.29591        0.76535       -3.23468
C          5.08681        2.28325       -3.21259
C          6.28505        3.00238       -2.57678
C          4.79559        2.85500       -4.60955
H          0.36518        0.55919        0.22395
H          0.44583       -0.66951       -1.06149
H          0.75355        1.03310       -1.44745
H          2.52613       -0.69967        0.38466
H          2.82936        0.98876       -0.00455
H          2.88662        0.26625       -2.49948
H          3.03044       -1.40560       -1.91956
H          4.95254        1.12081       -0.74841
H          5.39297       -1.46392       -2.26727
H          6.63819        0.00613       -1.36159
H          4.39435       -2.00049        0.00459
H          4.92741       -0.63576        1.05490
H          6.29508       -2.46071       -1.43318
H          4.56547        0.29155       -3.91197
H          6.30297        0.52654       -3.62148
H          4.20347        2.49064       -2.57697
H          7.18881        2.85759       -3.19190
H          6.49420        2.60323       -1.57529
H          6.10566        4.08661       -2.48846
H          5.64425        2.67100       -5.28915
H          4.62141        3.94480       -4.57864
H          3.90717        2.38069       -5.05419
