21

N          0.84754       -0.05539        1.00822
C          2.09451       -0.07786        0.34716
S          3.08593        1.53499        0.62139
O          2.56956        2.21620        1.80560
O          4.52245        1.42598        0.41110
C          2.46198        2.74342       -0.80491
C          3.16996        2.75557       -2.19838
C          3.19361        1.42836       -3.03082
F          1.93716        0.98777       -3.26797
F          3.77502        1.68339       -4.23019
F          3.88598        0.46596       -2.42034
F          2.52738        3.68487       -2.98615
F          4.45313        3.16647       -2.04154
F          1.12491        2.51209       -1.00412
F          2.59379        4.00803       -0.31683
C          2.99996       -1.29319        0.92945
O          2.76446       -1.52197        2.13887
O          3.74647       -1.82525        0.09060
H          0.33637        0.82328        0.96182
H          1.02551       -0.35111        1.97688
H          2.03732       -0.14724       -0.74584
