34

O          2.17074       -0.60447       -1.70883
In         3.49712        0.35596       -0.42473
C          4.53008       -1.26078        0.70503
C          4.98754       -2.41369        0.03638
C          5.65168       -3.44325        0.71118
C          5.89317       -3.37038        2.09905
C          5.42561       -2.22426        2.77282
C          4.75964       -1.19984        2.09028
Si         6.79744       -4.74344        2.99600
C          8.57481       -4.89952        2.30622
C          9.44098       -5.93161        3.03761
C         10.84022       -6.08131        2.47939
F         11.54514       -4.91543        2.50466
F         11.57094       -6.99196        3.19753
F         10.84600       -6.51683        1.18702
C          6.91471       -4.37820        4.85000
C          5.93051       -6.41094        2.74585
I          1.95173        1.72590        1.57680
H          1.58117       -1.15732       -1.17388
H          4.39661        1.54451       -1.34194
H          4.81264       -2.52119       -1.03892
H          5.98426       -4.31951        0.14224
H          5.57906       -2.12704        3.85217
H          4.39570       -0.33628        2.65614
H          9.04630       -3.90624        2.35972
H          8.50781       -5.15219        1.23620
H          8.99200       -6.93589        3.00230
H          9.56300       -5.67042        4.09951
H          7.47496       -3.45202        5.04250
H          7.41694       -5.19529        5.38861
H          5.91447       -4.25968        5.28998
H          5.84032       -6.65031        1.67640
H          4.91393       -6.38019        3.16251
H          6.46839       -7.23815        3.23335
