28

C          1.40130       -0.57519        0.47348
C          2.29173       -0.66333       -0.78583
C          3.09171        0.58618       -1.08980
C          2.53029        1.62413       -1.84274
C          1.18903        1.48897       -2.40000
C          0.68041        2.31553       -3.37737
C          1.42464        3.41282       -3.87468
C          2.64394        3.68184       -3.26116
C          3.18765        2.88993       -2.22499
C          4.31746        3.47365       -1.49422
O          4.51121        3.47130       -0.28396
O          5.24104        4.18456       -2.27775
C          4.50038        0.58490       -0.56446
N          5.50906        0.71638       -1.65501
H          0.83946       -1.51062        0.65020
H          0.67865        0.24836        0.38006
H          2.01290       -0.37078        1.36508
H          1.65429       -0.95281       -1.64102
H          2.99095       -1.50768       -0.64405
H          0.55409        0.67860       -2.04188
H         -0.32873        2.12725       -3.75786
H          1.01593        4.08324       -4.63240
H          3.16033        4.61136       -3.52082
H          5.07838        3.90319       -3.19450
H          4.64636       -0.34656        0.02256
H          4.69979        1.43035        0.11678
H          5.44764       -0.09519       -2.27285
H          6.45355        0.73877       -1.26127
