27

O          2.53016        1.38442       -1.24028
C          2.08446        1.06559        0.00654
O          0.88107        0.96053        0.18302
C          3.08374        0.87270        1.09464
C          4.46505        1.04236        0.89064
C          5.36003        0.83998        1.93897
C          4.86995        0.46054        3.19222
C          3.49628        0.29273        3.39932
C          2.57584        0.50353        2.36037
Ga         0.59490        0.23871        2.53836
S          0.34186       -0.54990        4.97162
O         -0.89394       -1.30073        5.25034
O          1.58124       -0.98312        5.65785
C          0.01415        1.15127        5.85362
F          0.95845        2.06447        5.47775
F         -1.19647        1.67252        5.54069
F          0.07631        1.02698        7.19867
S          0.20306       -2.00439        1.65511
O          0.69618       -3.04849        2.54208
O         -1.06631       -2.20661        0.96976
F          1.33617       -2.02251        0.39150
H          3.50316        1.39196       -1.23145
H          4.87662        1.33691       -0.08185
H          6.43107        0.97172        1.77657
H          5.56548        0.28771        4.01625
H          3.13703       -0.02842        4.37961
H         -0.63931        1.17548        2.53503
