38

C          1.15900       -1.05868       -0.09583
C          2.49317       -0.34040        0.13279
C          2.99491        0.43560       -1.09218
C          4.34149        1.14794       -0.90639
B          4.93498        1.93332       -2.23556
C          3.99299        3.24182       -2.49513
O          4.40369        3.96033       -3.76060
C          3.68494        4.98718       -4.13334
F          3.61689        6.02394       -3.21640
F          4.21062        5.52732       -5.27502
F          2.35980        4.69980       -4.42430
C          6.51183        2.37153       -2.04431
C          7.50045        1.19899       -2.03064
C          8.97872        1.58828       -1.89154
C          9.92635        0.39182       -1.92001
N         11.33809        0.81077       -1.78009
H          0.82006       -1.60542        0.79830
H          1.23929       -1.78418       -0.92063
H          0.36774       -0.34316       -0.36967
H          3.26189       -1.07525        0.43041
H          2.39670        0.35410        0.98597
H          2.21565        1.16430       -1.38357
H          3.07767       -0.25992       -1.94762
H          5.07835        0.38762       -0.58012
H          4.25454        1.84634       -0.04559
H          4.83873        1.17780       -3.22237
H          4.07451        3.99813       -1.69245
H          2.92651        2.99856       -2.62886
H          6.64423        2.95432       -1.10704
H          6.80922        3.05793       -2.86061
H          7.36815        0.61739       -2.96159
H          7.24452        0.50373       -1.20973
H          9.13725        2.15008       -0.95534
H          9.24783        2.27889       -2.71347
H          9.73660       -0.18825       -2.84600
H          9.69350       -0.27909       -1.07595
H         11.56094        1.47315       -2.52702
H         11.95685        0.00981       -1.92200
