35

C          0.76059       -0.24297       -2.75904
C          2.21426       -0.74309       -2.76703
C          3.07978       -0.24134       -1.60283
Al         4.97826       -0.98584       -1.59014
C          5.95376       -0.40885        0.11242
C          5.69870       -1.04617        1.34520
C          6.34946       -0.69248        2.53416
C          7.30875        0.32968        2.55513
C          7.58746        0.97982        1.34313
C          6.92533        0.61538        0.16476
C          8.02167        0.71250        3.83137
C          6.01174       -0.37596       -3.24647
C          5.85186        1.08078       -3.64697
N          6.57249        1.41672       -4.91124
H          0.17647       -0.62498       -3.61488
H          0.72647        0.85793       -2.79313
H          0.24724       -0.55428       -1.83499
H          2.67826       -0.45397       -3.72753
H          2.20849       -1.84795       -2.76988
H          2.59304       -0.51425       -0.64617
H          3.10059        0.86618       -1.61374
H          4.89661       -2.63604       -1.56377
H          4.96936       -1.86351        1.38066
H          6.11491       -1.22067        3.46556
H          8.33533        1.78105        1.32419
H          7.18512        1.15291       -0.75421
H          7.64544        0.13006        4.68474
H          7.88674        1.77993        4.06905
H          9.10748        0.53600        3.76092
H          5.70823       -1.01561       -4.09562
H          7.08615       -0.59127       -3.07626
H          6.17628        1.73388       -2.81114
H          4.78623        1.31162       -3.81872
H          7.53172        1.07136       -4.82158
H          6.64767        2.43367       -5.01505
