25

C          1.16692        0.43834        0.07049
C          2.66711        0.12467        0.07034
C          3.02339       -1.20361       -0.61647
C          4.52461       -1.49994       -0.68951
Ga         4.97805       -3.26068       -1.55968
C          3.77684       -3.73502       -3.22239
C          2.37735       -3.99983       -2.82740
O          1.36904       -3.46939       -3.27906
O          2.22737       -4.92885       -1.81246
N          6.87120       -3.39268       -1.95425
H          0.94601        1.40432        0.55145
H          0.59772       -0.33900        0.60336
H          0.77313        0.47644       -0.95686
H          3.04514        0.10795        1.10824
H          3.21449        0.94152       -0.43318
H          2.58997       -1.20067       -1.63172
H          2.50271       -2.02417       -0.08962
H          4.96261       -1.51422        0.32441
H          5.04326       -0.68970       -1.23368
H          4.59218       -4.55139       -0.60624
H          4.27255       -4.66852       -3.52935
H          3.81155       -3.00677       -4.04063
H          3.11003       -5.01024       -1.36481
H          7.14284       -2.71858       -2.67456
H          7.08535       -4.30977       -2.35463
