100

C          2.52717        0.93837       -4.10070
C          3.01607        0.89910       -2.65078
C          4.23372        1.79317       -2.39618
C          4.73574        1.75503       -0.94970
C          5.96473        2.63431       -0.69990
C          6.47913        2.58194        0.74208
C          7.70598        3.46857        0.98787
C          8.23671        3.41467        2.42860
Si         9.65831        4.62831        2.80416
C          9.07582        6.37561        2.45077
C          8.05925        6.95709        3.23622
C          7.53388        8.21348        2.93070
C          7.97022        8.97553        1.82460
C          9.00714        8.39349        1.06335
C          9.54420        7.13652        1.36266
B          7.17434       10.34847        1.47221
C          8.07561       11.73200        1.42020
C          9.23821       11.92327        0.39203
C          9.75024       13.38568        0.13418
F         10.03951       14.02924        1.28370
F         10.89312       13.34452       -0.60771
F          8.85782       14.12288       -0.55610
F         10.33435       11.21029        0.79928
F          8.86545       11.44387       -0.83710
F          7.23421       12.83594        1.20015
F          8.67251       11.97928        2.65987
C          6.17218       10.18207        0.19258
C          4.95949       10.90443        0.14792
C          4.01434       10.72116       -0.86282
C          4.22635        9.79657       -1.90776
C          5.44524        9.08998       -1.88896
C          6.38082        9.27884       -0.86884
Si         2.89636        9.41265       -3.16406
C          1.93743       10.99390       -3.64227
C          2.77327       12.04106       -4.39039
C          1.95119       13.25030       -4.80077
C          2.70656       14.42055       -5.52851
C          3.46680       14.15729       -6.88479
C          2.70723       13.65345       -8.18058
C          1.52238       14.52494       -8.74192
C          1.08927       14.16095      -10.21369
F          0.84007       12.84384      -10.33580
F         -0.04089       14.83864      -10.50268
F          2.02895       14.51292      -11.10792
F          0.43088       14.36269       -7.95832
F          1.87596       15.83661       -8.74883
F          3.66401       13.59574       -9.15397
F          2.25539       12.39366       -7.96194
F          4.08233       15.32521       -7.21409
F          4.43530       13.22562       -6.65613
F          1.82543       15.43761       -5.76058
F          3.66420       14.88159       -4.67395
F          0.90083       12.88393       -5.61636
F          1.38953       13.84948       -3.69548
C          3.63727        8.65076       -4.73260
C          1.61273        8.21363       -2.45343
C         10.12221        4.42776        4.63147
C         11.16460        4.18500        1.74243
H          1.65942        0.28108       -4.25512
H          3.31805        0.61563       -4.79474
H          2.23033        1.95703       -4.39205
H          3.26690       -0.13952       -2.37438
H          2.19700        1.20182       -1.97663
H          3.98398        2.83379       -2.66825
H          5.05227        1.49259       -3.07440
H          4.97283        0.71118       -0.67554
H          3.92082        2.06754       -0.27315
H          5.72484        3.67960       -0.96091
H          6.77488        2.32982       -1.38635
H          6.72278        1.53683        1.00664
H          5.67143        2.88870        1.42993
H          7.45071        4.51085        0.73278
H          8.50519        3.17398        0.28497
H          8.55902        2.38766        2.67894
H          7.41672        3.65300        3.12966
H          7.66096        6.41659        4.10224
H          6.74109        8.62769        3.55954
H          9.41229        8.92885        0.20205
H         10.34115        6.74105        0.72518
H          6.46257       10.62469        2.43711
H          4.74787       11.61594        0.94997
H          3.08441       11.29915       -0.82271
H          5.66845        8.36560       -2.67881
H          7.29723        8.68441       -0.89017
H          1.51834       11.43524       -2.72488
H          1.07770       10.68930       -4.26055
H          3.21195       11.61010       -5.30113
H          3.60792       12.39688       -3.76795
H          4.40381        9.29926       -5.17982
H          2.85844        8.46823       -5.48791
H          4.11522        7.68600       -4.51063
H          1.14275        8.63681       -1.55407
H          2.09306        7.26964       -2.15908
H          0.81874        7.98316       -3.17964
H          9.28208        4.70424        5.28471
H         10.96994        5.07745        4.89202
H         10.40225        3.38936        4.86408
H         10.94075        4.24657        0.66813
H         11.50039        3.15940        1.95660
H         12.00473        4.86418        1.94665
