35

C          1.04898       -0.56637       -0.59245
C          2.54771       -0.34765       -0.36933
C          3.14879       -1.29336        0.67490
C          4.64649       -1.08225        0.91419
C          5.23918       -2.02259        1.97248
C          6.73914       -1.80112        2.21445
Al         7.67070       -2.84306        3.61290
S          6.52307       -2.50609        5.74079
O          5.30646       -1.69171        5.54959
O          6.44872       -3.67863        6.62626
C          7.67352       -1.28841        6.70995
F          7.98879       -0.21840        5.93077
F          7.04779       -0.82937        7.81649
F          8.82895       -1.87519        7.09260
S          7.65620       -5.22708        3.16631
O          7.68424       -5.27816        1.68784
O          8.63614       -6.03241        3.90985
C          5.97206       -6.08017        3.58603
F          4.94381       -5.23067        3.32635
F          5.80913       -7.18332        2.82015
F          5.89733       -6.44770        4.87671
H          0.64295        0.12183       -1.34857
H          0.48375       -0.41126        0.33910
H          0.84541       -1.59351       -0.93168
H          2.72579        0.69591       -0.05762
H          3.08538       -0.47340       -1.32495
H          2.97354       -2.33817        0.36236
H          2.60862       -1.17025        1.63025
H          4.82289       -0.03610        1.22377
H          5.19330       -1.21398       -0.03722
H          5.06403       -3.06518        1.65995
H          4.68849       -1.88842        2.91793
H          6.91754       -0.74201        2.48213
H          7.30273       -1.97078        1.27879
H          9.22264       -2.61951        3.93170
