39

N          4.85486       -4.25717       -3.16391
C          4.47293       -3.17118       -2.24048
C          4.85469       -3.50039       -0.79953
C          4.40709       -2.42690        0.19874
C          4.83965       -2.69824        1.65001
Al         6.81843       -2.50630        2.15406
C          7.81440       -1.38039        0.73867
C          7.41722        0.09810        0.75849
C          8.14849        1.05363       -0.18528
O          7.92039        2.24408       -0.29436
O          9.12358        0.46863       -0.93827
C          7.79435       -4.26814        2.44697
C          7.98043       -5.23034        1.26814
C          8.68272       -6.54041        1.63334
N          8.87323       -7.41170        0.45283
H          4.53696       -4.04393       -4.11072
H          4.37759       -5.11849       -2.88894
H          3.39040       -2.92812       -2.27595
H          5.00888       -2.26177       -2.55853
H          5.94394       -3.65079       -0.73848
H          4.39558       -4.46669       -0.51583
H          3.30509       -2.32769        0.10997
H          4.81262       -1.45448       -0.13791
H          4.46822       -3.69771        1.95144
H          4.30620       -1.99044        2.31086
H          6.92395       -1.64281        3.56032
H          7.64936       -1.82525       -0.26075
H          8.88481       -1.50512        0.99227
H          7.53789        0.51845        1.77149
H          6.34497        0.22995        0.53631
H          9.09825       -0.48272       -0.66954
H          7.26797       -4.79702        3.26680
H          8.78930       -4.01646        2.86454
H          8.55493       -4.74804        0.45787
H          6.99730       -5.48279        0.82520
H          8.10542       -7.02657        2.44684
H          9.67894       -6.31184        2.04861
H          7.97122       -7.53996       -0.01192
H          9.17647       -8.34312        0.74373
