28

C          1.10674       -0.11846       -1.05412
S          2.73767       -0.71224       -0.52674
C          3.79068        0.19586       -1.71436
C          5.26501       -0.16564       -1.51230
N          6.05324        0.70120       -2.38113
S          7.50903        0.29372       -2.71720
O          8.41312        1.44261       -2.74469
O          8.00246       -0.95495       -2.11822
C          7.60646       -0.09088       -4.61705
C          6.94043       -1.35436       -5.25936
C          5.37528       -1.54134       -5.27209
C          4.46353       -0.41447       -5.87906
F          4.86120       -0.08369       -7.12572
F          3.19612       -0.90363       -5.96738
F          4.42473        0.68375       -5.12360
F          5.13617       -2.65750       -6.03607
F          4.92969       -1.80400       -4.02205
F          7.32010       -1.39838       -6.58492
F          7.42982       -2.47603       -4.66510
F          7.14125        0.99159       -5.32686
F          8.93686       -0.23130       -4.93511
H          0.36204       -0.59681       -0.40484
H          0.89776       -0.39760       -2.09693
H          1.02272        0.97256       -0.94578
H          3.65749        1.27735       -1.56268
H          3.47018       -0.05389       -2.73475
H          5.41832       -1.24327       -1.69644
H          5.52019        0.00371       -0.44755
