24

S          3.50054        2.36459       -0.76616
Al         3.00414        0.22192       -0.21039
S          0.64068       -0.03757       -0.88388
O         -0.27767        0.93573       -0.25800
O          0.48013       -0.29869       -2.33000
C          0.04168       -1.72225       -0.11234
F          0.95852       -2.70811       -0.32988
F         -0.14921       -1.63930        1.22755
F         -1.12749       -2.12087       -0.66915
C          4.05689       -1.00333       -1.37535
C          5.56386       -0.97322       -1.07367
C          6.42467       -1.78496       -2.05240
C          7.92171       -1.73792       -1.73341
H          2.86886        2.89121        0.30844
H          2.90204       -0.06203        1.37424
H          3.87932       -0.70526       -2.42391
H          3.67512       -2.03522       -1.28876
H          5.74869       -1.34645       -0.04930
H          5.92866        0.07019       -1.07453
H          6.24955       -1.40453       -3.07326
H          6.07477       -2.83162       -2.05609
H          8.29304       -0.70136       -1.74058
H          8.51741       -2.31149       -2.45962
H          8.12643       -2.15029       -0.73306
