48

N          2.52698        4.80453        1.03978
C          3.86703        4.81002        1.37691
O          4.35180        5.72599        2.04238
C          4.65082        3.63693        0.83211
C          5.10601        3.88755       -0.64808
C          5.70736        2.67856       -1.31927
C          4.88443        1.81423       -2.12576
C          3.46024        2.28711       -2.53750
F          3.47670        3.44985       -3.24437
F          2.84647        1.37011       -3.31889
F          2.63291        2.48730       -1.46225
F          5.46070        1.41760       -3.36604
F          4.59408        0.48967       -1.54744
C          7.05962        2.30917       -1.02180
C          7.68383        1.10236       -1.48719
C          9.00249        0.79496       -1.20176
C          9.84327        1.63820       -0.42759
C          9.23195        2.81723        0.05511
C          7.90733        3.13678       -0.21379
Si        11.62346        1.21722       -0.13412
C         12.51381        0.96921       -1.81277
C         12.29427        2.13588       -2.78136
C         13.00080        1.98012       -4.10765
F         12.60998        0.86595       -4.79063
F         12.77222        3.04395       -4.93651
F         14.36175        1.89056       -3.97145
C         12.51463        2.60314        0.80645
C         11.86625       -0.40514        0.82097
H          2.01915        5.67145        1.17631
H          2.19778        4.17675        0.31447
H          4.03752        2.72507        0.85196
H          5.52937        3.47486        1.46819
H          5.82926        4.71893       -0.63774
H          4.24662        4.27672       -1.20761
H          7.10495        0.39895       -2.08238
H          9.39818       -0.14786       -1.59754
H          9.80940        3.51512        0.66989
H          7.51491        4.06217        0.20938
H         12.13367        0.03962       -2.26627
H         13.59035        0.81434       -1.63389
H         12.65042        3.08677       -2.35615
H         11.22302        2.26521       -2.99611
H         12.46452        3.56225        0.27144
H         13.57550        2.35303        0.95579
H         12.06414        2.75683        1.79767
H         11.34002       -1.23169        0.32155
H         11.45501       -0.32072        1.83707
H         12.92944       -0.67912        0.90197
