14

C          0.98190       -0.17392       -0.09577
Al         2.78252        0.33130        0.55052
S          3.72690        1.85520       -1.13438
O          2.70437        2.87918       -1.44556
O          5.10366        2.32136       -0.87810
C          3.91442        0.94707       -2.83656
F          2.75572        0.32979       -3.19516
F          4.22904        1.83055       -3.81523
F          4.88418        0.00235       -2.80467
Cl         4.14386       -1.37430        0.68108
H          0.37428        0.72029       -0.30084
H          0.45693       -0.76952        0.66873
H          1.01920       -0.77488       -1.01572
H          2.92043        1.32031        1.81007
