36

C          0.92505       -0.58740       -0.14543
C          2.44048       -0.36558       -0.13578
C          2.87002        0.93855       -0.81556
C          4.39192        1.13204       -0.81654
C          4.92182        2.33908       -1.63285
C          4.35012        2.15814       -3.12057
O          4.82787        1.17759       -3.75226
O          3.46295        2.97533       -3.49137
C          4.43816        3.66238       -1.00112
C          4.99098        4.94143       -1.64698
C          4.27045        6.20857       -1.19011
N          4.50646        6.49134        0.24460
C          6.46727        2.26000       -1.70550
C          7.22766        2.35657       -0.37537
H          0.64444       -1.53589        0.33836
H          0.53854       -0.60764       -1.17559
H          0.40157        0.22497        0.38295
H          2.93649       -1.21095       -0.64310
H          2.80777       -0.37991        0.90639
H          2.37530        1.78587       -0.30927
H          2.50563        0.94913       -1.85546
H          4.85197        0.22850       -1.25134
H          4.73785        1.20325        0.23325
H          4.67688        3.65097        0.08207
H          3.34171        3.69287       -1.09833
H          4.85515        4.84358       -2.73410
H          6.06848        5.05532       -1.44056
H          3.19477        6.10224       -1.43710
H          4.64763        7.07527       -1.75833
H          4.21244        5.67801        0.79003
H          3.90615        7.26087        0.54716
H          6.82778        3.05566       -2.37798
H          6.70521        1.31551       -2.21684
H          7.03206        3.30630        0.14712
H          8.31461        2.29627       -0.54471
H          6.96206        1.54118        0.31387
