36

O          3.37047        1.77382       -1.32430
Nb         2.69661        0.28011       -0.27337
C          3.90013       -0.99630       -1.77838
C          4.41507       -0.50172       -2.99772
C          5.16570       -1.28203       -3.87729
C          5.44211       -2.62485       -3.56473
C          4.95486       -3.15456       -2.35970
C          4.20131       -2.35048       -1.50160
C          6.23765       -3.46551       -4.51109
C          7.80000       -3.24777       -4.54787
C          8.66261       -3.49975       -3.25271
C          8.82800       -4.95161       -2.63541
C          9.38789       -6.10331       -3.55348
C          9.95223       -7.34264       -2.75797
F          9.07241       -7.77740       -1.83703
F         10.18209       -8.34493       -3.63440
F         11.11497       -7.05105       -2.14738
F          8.39773       -6.56455       -4.35334
F         10.40805       -5.64410       -4.32547
F          9.71206       -4.79779       -1.60139
F          7.64769       -5.35891       -2.11505
F          9.92651       -3.06578       -3.54527
F          8.18120       -2.73185       -2.24567
F          8.34293       -4.02643       -5.53723
F          8.03210       -1.94626       -4.88263
F          6.05345       -4.81651       -4.29264
F          5.86141       -3.22975       -5.82611
F          3.19103       -0.88197        1.14521
H          3.20967        2.58120       -0.80928
H          1.52535       -0.54522       -1.31156
H          2.47241        1.66464        0.94939
H          0.98743        0.69269       -0.04884
H          4.21992        0.54113       -3.26535
H          5.53116       -0.85852       -4.81537
H          5.15479       -4.19645       -2.10315
H          3.83279       -2.80438       -0.57612
