30

N          2.48219        0.93159       -0.85208
C          2.28897       -0.07109        0.21212
C          2.94193       -1.40957       -0.14347
C          4.47367       -1.40796       -0.28645
C          5.07161       -2.79275       -0.55864
Ga         7.09632       -2.81766       -0.81265
C          8.14489       -4.36185        0.01402
C          8.61091       -4.14185        1.45861
C          7.45358       -4.03801        2.45117
N          7.94532       -3.97864        3.84664
F          7.34983       -3.01669       -2.66149
H          1.90448        1.75491       -0.67756
H          2.17309        0.54288       -1.74569
H          1.21752       -0.24925        0.44616
H          2.75230        0.32792        1.13114
H          2.49225       -1.78662       -1.08252
H          2.65840       -2.14226        0.63245
H          4.90840       -0.98456        0.63831
H          4.76323       -0.70602       -1.08463
H          4.64187       -3.21142       -1.48614
H          4.78923       -3.48540        0.25635
H          7.76656       -1.40125       -0.39473
H          9.02144       -4.48959       -0.64226
H          7.56864       -5.30225       -0.05355
H          9.21010       -3.21781        1.53240
H          9.27464       -4.96383        1.80815
H          6.75956       -4.88497        2.27423
H          6.88331       -3.11618        2.25501
H          8.48973       -4.82360        4.03814
H          7.15628       -3.99941        4.49577
