32

C          2.48582        1.12264        3.75844
S          3.36768        0.69861        2.22643
C          4.18240       -0.87199        2.73355
C          5.01268       -1.44317        1.61120
Sb         6.32181       -3.16649        2.30749
C          4.74508       -4.75082        1.43128
C          3.53545       -5.14714        2.30345
C          2.48800       -6.17095        1.74520
F          1.87890       -5.70548        0.63450
F          3.06108       -7.35640        1.44957
F          1.51891       -6.40632        2.67190
F          3.99814       -5.68190        3.47498
F          2.81796       -4.01375        2.59893
F          4.24132       -4.29457        0.21521
F          5.43921       -5.91749        1.14028
C          7.82747       -1.69240        3.19712
C          8.40202       -2.15867        4.48609
O          9.59081       -2.29190        4.73072
O          7.48346       -2.46301        5.46148
H          1.97809        2.08110        3.58611
H          3.18278        1.23870        4.60070
H          1.73186        0.36322        4.01004
H          3.39818       -1.57758        3.04373
H          4.79774       -0.65159        3.62314
H          5.74317       -0.71848        1.22128
H          4.40175       -1.82021        0.78190
H          5.46205       -3.05487        3.95103
H          7.07990       -3.21597        0.69566
H          7.20794       -4.57846        2.87680
H          7.19878       -0.80391        3.34991
H          8.62172       -1.47862        2.47431
H          6.59124       -2.55816        5.03024
