13

C          3.62220        0.43874        1.79767
S          3.11287       -0.19902        0.17231
C          3.52714        1.28503       -0.87704
C          5.03212        1.55747       -1.17983
N          5.28013        2.82118       -1.75590
F          5.07322        3.76772       -0.53066
H          3.39726       -0.33371        2.54592
H          3.06326        1.35222        2.04582
H          4.69573        0.66372        1.81880
H          3.10048        2.16782       -0.37930
H          2.97898        1.12547       -1.81770
H          5.36821        0.83304       -1.95050
H          5.62486        1.32397       -0.25060
