34

C          6.72781       -3.14742       -1.41878
O          6.89991       -2.87443       -0.04591
C          5.66552       -2.83556        0.65602
C          5.89229       -2.44253        2.10387
O          6.22599       -1.06766        2.17630
C          6.04202       -0.49085        3.48296
C          7.00485       -0.98230        4.56188
Al         8.95214       -0.88553        4.10452
S          9.99549        0.36766        5.94811
O         11.45036        0.58719        5.86106
O          9.13167        1.55462        6.13059
C          9.73893       -0.53588        7.69080
C         10.93340       -1.36294        8.22470
F         11.96305       -0.56440        8.56739
F         10.57626       -2.06402        9.34516
F         11.35259       -2.25355        7.30823
F          9.42706        0.39774        8.63016
F          8.66771       -1.37906        7.55305
C          9.80160       -2.76912        4.07329
F          9.35732       -3.48226        2.95662
F         11.17568       -2.83669        4.00231
F          9.46060       -3.57987        5.14766
H          7.72548       -3.15948       -1.87630
H          6.11295       -2.37221       -1.91846
H          6.24429       -4.13160       -1.58706
H          5.17978       -3.83426        0.62415
H          4.97956       -2.10552        0.17986
H          6.68416       -3.08011        2.53867
H          4.95118       -2.63960        2.66033
H          4.98099       -0.65566        3.77576
H          6.17650        0.58902        3.31962
H          6.74527       -2.00422        4.88554
H          6.85631       -0.34317        5.44906
H          9.51754        0.07298        2.95187
