13

F          0.97837        0.13536       -0.03927
C          2.38559       -0.06199        0.00347
C          2.80986       -0.52817        1.32008
C          2.38457       -1.93720        1.88599
F          2.92948       -2.93838        1.14988
F          2.78198       -2.15549        3.18437
F          1.03879       -2.09778        1.86188
F          4.19568       -0.54660        1.42855
F          2.31035        0.34680        2.31536
C          2.83671       -0.66768       -1.23257
F          2.24642       -1.91741       -1.63192
F          2.54880        0.12045       -2.34245
F          4.17908       -0.91842       -1.25777
