42

N          1.30885        0.01989       -1.39272
C          2.62996        0.14332       -0.89494
N          2.97577        0.62577        0.25213
N          3.56018       -0.35114       -1.77884
C          4.98136       -0.44677       -1.44298
C          5.72875       -1.14994       -2.57641
C          7.25465       -1.19667       -2.39114
C          7.95555       -2.03163       -3.45478
Sb        10.17069       -1.60535       -3.69438
C         10.50643       -2.21051       -1.44236
F          9.70545       -3.26333       -1.02297
F         11.79785       -2.62541       -1.18647
F         10.26674       -1.19948       -0.53320
C          9.87354       -1.05091       -5.89389
C          9.35700       -2.13750       -6.62086
C          9.03213       -2.05431       -7.97587
C          9.23507       -0.85096       -8.65842
C          9.77602        0.23272       -7.97523
C         10.09573        0.15196       -6.60360
C         10.71573        1.42325       -6.05759
O         11.23445        2.24294       -6.80377
O         10.68056        1.67449       -4.73988
H          0.63816        0.55210       -0.84625
H          1.22692        0.24821       -2.38224
H          2.17030        1.04287        0.72679
H          3.21787       -1.07588       -2.40244
H          5.12033       -0.98585       -0.48938
H          5.37007        0.57094       -1.28526
H          5.49918       -0.64345       -3.53027
H          5.34308       -2.18223       -2.67098
H          7.49078       -1.58752       -1.38839
H          7.64369       -0.16084       -2.41192
H          7.54838       -1.82098       -4.45549
H          7.87315       -3.11063       -3.26053
H          9.72927        0.12163       -3.16871
H         10.50423       -3.29161       -4.16740
H         11.86962       -1.12747       -3.71338
H          9.20786       -3.09228       -6.10520
H          8.62524       -2.92463       -8.49703
H          8.98353       -0.76139       -9.71712
H          9.98004        1.17495       -8.48575
H         10.21364        0.96754       -4.18605
