14

C          1.07767        0.11034       -0.09072
B          2.54585       -0.26994        0.47518
S          3.56041        1.43975        0.78097
O          4.92801        1.20782        1.30824
O          3.45077        2.41537       -0.33514
C          2.66837        2.23455        2.17342
F          3.30747       -1.04127       -0.44243
H          0.47293        0.69557        0.62141
H          0.51616       -0.81793       -0.29504
H          1.13401        0.68234       -1.03078
H          2.55109       -0.74937        1.61255
H          2.65526        1.54928        3.02911
H          1.65108        2.49311        1.85681
H          3.24508        3.13910        2.40538
