33

N          3.24146       -0.91918       -1.95568
C          3.07012       -0.37333       -0.60148
C          3.57019       -1.36451        0.46255
C          5.06231       -1.69607        0.37618
Nb         5.72875       -3.15581        1.81079
C          4.39767       -4.92128        1.33812
C          4.53406       -6.36374        1.90846
C          4.55626       -6.45986        3.47058
C          4.55410       -7.91773        4.06358
F          5.54892       -8.67376        3.56142
F          4.72421       -7.84309        5.40569
F          3.38239       -8.54600        3.83412
F          5.68193       -5.85344        3.93316
F          3.46699       -5.84074        4.00206
F          3.49634       -7.16107        1.46749
F          5.68790       -6.92884        1.45082
F          3.03931       -4.58099        1.51936
F          4.48026       -5.10789       -0.06373
S          8.08460       -2.70380        2.33431
O          8.04701       -1.25699        2.04141
O          8.82451       -3.15843        3.50494
F          9.05759       -3.26657        1.06734
H          2.86003       -0.27890       -2.65253
H          2.72178       -1.79504       -2.04473
H          2.01784       -0.11005       -0.36202
H          3.65832        0.55736       -0.53834
H          2.96365       -2.28379        0.38043
H          3.32922       -0.93531        1.44958
H          5.69058       -0.80239        0.54292
H          5.32963       -2.11764       -0.61116
H          6.66211       -4.50940        1.20260
H          4.63452       -3.42972        3.14615
H          6.05015       -2.53452        3.42333
