24

C          0.89697        0.05891       -0.06981
O          2.30930        0.07377       -0.07539
C          2.83516        1.25032       -0.68688
C          4.35499        1.18073       -0.64574
O          4.84544        2.35324       -1.25194
C          6.28601        2.40513       -1.27945
C          6.75620        3.68667       -1.94001
C          8.28238        3.77946       -1.99794
C          8.85243        5.08527       -2.67788
O          8.00390        5.91129       -3.11212
O         10.11184        5.14170       -2.70533
H          0.58287       -0.87542        0.41410
H          0.48179        0.08936       -1.09637
H          0.47928        0.91488        0.49586
H          2.48752        2.15546       -0.15176
H          2.49215        1.32938       -1.73691
H          4.70235        0.27117       -1.17939
H          4.69714        1.09329        0.40688
H          6.66524        1.51665       -1.82628
H          6.66619        2.33378       -0.23897
H          6.35435        4.55531       -1.39694
H          6.34519        3.75321       -2.95866
H          8.70419        2.91901       -2.54675
H          8.71502        3.72749       -0.98333
