30

N          0.89592        0.47872        0.06355
C          2.27642       -0.04376        0.08068
C          3.05364        0.47809        1.28716
C          4.48122       -0.08775        1.38460
C          5.33729        0.50120        2.50522
Nb         7.43023       -0.13211        2.81631
C          8.39494        0.40124        0.89538
C          7.95545       -0.48016       -0.26793
C          8.23422        0.04584       -1.67059
O          9.14452        0.76393       -2.01184
O          7.34140       -0.39525       -2.63776
Br         8.32298        1.52967        4.55396
H          0.42573        0.20764       -0.80177
H          0.92220        1.50092        0.06266
H          2.84665        0.19833       -0.84041
H          2.21487       -1.14390        0.13100
H          2.49463        0.24107        2.20732
H          3.10660        1.58129        1.23295
H          4.97670        0.08119        0.40901
H          4.42727       -1.18317        1.50760
H          4.84091        0.35411        3.48317
H          5.43562        1.60096        2.36284
H          7.98777       -1.30247        4.00074
H          6.42710       -1.56889        2.96663
H          8.16356       -1.59932        2.18276
H          9.49222        0.39573        0.98993
H          8.09180        1.45327        0.71500
H          6.87617       -0.72093       -0.20752
H          8.46220       -1.45795       -0.19138
H          6.66247       -0.92693       -2.18594
