63

O          2.45117       -0.31789       -0.14054
S          3.85696       -0.34749       -0.56372
O          4.78661        0.63419        0.01689
C          4.62669       -2.05685        0.16948
C          3.68671       -3.15431        0.74629
C          2.81318       -3.92372       -0.31166
C          1.56535       -4.66837        0.28780
F          1.92670       -5.45750        1.32281
F          0.62835       -3.80505        0.70520
F          1.02281       -5.45260       -0.66909
F          2.35524       -3.07178       -1.25979
F          3.58902       -4.86641       -0.91548
F          4.44609       -4.10087        1.39186
F          2.88064       -2.58091        1.67846
F          5.36443       -2.60243       -0.85945
F          5.48394       -1.72064        1.16317
In         4.37529       -0.58754       -3.19203
S          2.66153        1.15739       -4.28759
O          1.70652        1.88518       -3.44221
O          3.47561        1.93828       -5.24311
C          1.51943        0.18084       -5.57596
C          0.48805       -0.88783       -5.09456
C         -0.61828       -0.43151       -4.07585
C         -1.84980       -1.41064       -3.98613
F         -1.45157       -2.68683       -3.81536
F         -2.61044       -1.05847       -2.92835
F         -2.62016       -1.34264       -5.08973
F         -0.07692       -0.36187       -2.83945
F         -1.11280        0.78433       -4.42532
F         -0.14969       -1.38155       -6.20933
F          1.17736       -1.91429       -4.52556
F          0.87023        1.12515       -6.30309
F          2.37581       -0.48587       -6.41129
C          6.35311        0.28063       -3.46719
C          6.64726        1.12547       -4.55235
C          7.95025        1.57306       -4.77892
C          8.98561        1.18329       -3.91681
C          8.70636        0.35151       -2.82527
C          7.40002       -0.09153       -2.60808
C         10.39214        1.64804       -4.18102
C         10.72451        3.15773       -3.86699
C         10.48678        3.73165       -2.41823
C         11.30101        3.19184       -1.17033
C         12.87281        3.26574       -1.21036
C         13.56210        3.10875        0.19897
F         13.10881        2.01876        0.84413
F         14.89171        2.97122        0.00901
F         13.35961        4.19057        0.97007
F         13.34925        2.27113       -1.99729
F         13.27425        4.46211       -1.71334
F         10.88421        3.95462       -0.11809
F         10.94084        1.90808       -0.92904
F         10.73082        5.07152       -2.49536
F          9.17970        3.55979       -2.09953
F         12.02968        3.39626       -4.19121
F          9.94909        3.92652       -4.68437
F         11.31406        0.89390       -3.49549
F         10.69877        1.51943       -5.52267
H          3.83370       -2.14859       -3.70469
H          5.85146        1.44905       -5.22610
H          8.16298        2.21608       -5.63341
H          9.50585        0.04200       -2.15319
H          7.21128       -0.73683       -1.74800
