16

F          1.53978        0.26910       -0.21707
C          2.67345       -0.15223       -0.91100
O          2.46372       -1.12212       -1.75396
C          1.90508       -2.50079       -1.14391
N          2.66386       -3.57588       -1.56262
S          2.15214       -4.38940       -2.82005
O          2.70033       -5.73788       -2.79276
O          0.73790       -4.21729       -3.16930
C          3.03832       -3.63414       -4.31855
F          2.63847       -2.36176       -4.55354
F          4.38398       -3.61796       -4.15425
F          2.77902       -4.35267       -5.44648
F          3.14684        0.95555       -1.56018
F          3.59216       -0.42982        0.08971
H          0.86015       -2.46839       -1.48589
H          1.99690       -2.34163       -0.06194
