29

C          1.00312       -0.25068       -0.17199
C          2.52965       -0.34535       -0.09504
C          3.03700       -1.01733        1.18496
C          4.56630       -1.13421        1.26596
C          5.08431       -1.78532        2.55625
Al         7.06311       -1.96066        2.85059
S          7.86919        0.37592        2.78489
O          9.21509        0.62078        3.30868
O          7.51315        1.06952        1.54063
F          6.86669        1.14800        3.94049
C          8.24772       -2.79735        1.45832
C          8.07102       -2.39185       -0.01497
H          0.66726        0.24340       -1.09635
H          0.59918        0.32151        0.67776
H          0.54204       -1.25052       -0.14110
H          2.96713        0.66488       -0.16705
H          2.90926       -0.90021       -0.97070
H          2.58906       -2.02514        1.27174
H          2.67450       -0.45056        2.06190
H          5.00638       -0.12851        1.15670
H          4.91901       -1.70446        0.38769
H          4.65702       -2.80436        2.65196
H          4.69175       -1.23012        3.42864
H          7.43638       -2.43391        4.35714
H          8.11417       -3.89182        1.56151
H          9.28977       -2.61178        1.77405
H          7.05927       -2.62826       -0.38050
H          8.78245       -2.89994       -0.69154
H          8.20784       -1.30886       -0.15217
