46

N          1.35617       -0.49897       -0.95924
C          2.73424       -0.33382       -0.43908
C          3.08684        1.13736       -0.23014
C          4.49660        1.38423        0.31970
B          4.94910        2.97178        0.42409
C          3.95979        3.84315        1.42949
C          3.94964        3.40726        2.90252
C          3.00620        4.26956        3.76102
C          2.98819        3.92354        5.23332
C          2.01984        4.78674        6.09912
F          2.33228        6.10341        6.01020
F          0.73745        4.63805        5.68739
F          2.07201        4.44254        7.40823
F          2.60936        2.61355        5.44947
F          4.23405        4.07510        5.80957
C          6.52905        3.10649        0.89181
C          7.55743        2.66347       -0.15630
C          9.02523        2.75749        0.28170
C         10.03241        2.32685       -0.79061
C         11.49203        2.41189       -0.33452
H          1.20638       -1.46342       -1.26324
H          1.25609        0.07883       -1.79747
H          3.50101       -0.78749       -1.10003
H          2.79404       -0.86708        0.52506
H          2.32710        1.58497        0.43402
H          2.98756        1.66527       -1.19904
H          5.21271        0.84180       -0.32994
H          4.57678        0.88459        1.30937
H          4.83734        3.47807       -0.71666
H          2.91557        3.82502        1.05733
H          4.26195        4.90975        1.39080
H          4.96827        3.46713        3.31780
H          3.64133        2.35243        2.98396
H          1.97386        4.18241        3.38707
H          3.28936        5.33089        3.67727
H          6.71694        2.52499        1.82045
H          6.75237        4.16058        1.16111
H          7.41471        3.26838       -1.07110
H          7.35088        1.62022       -0.45967
H          9.17372        2.13984        1.18712
H          9.24636        3.79658        0.59004
H          9.89001        2.95062       -1.69054
H          9.80480        1.29272       -1.10387
H         11.75430        3.43990       -0.03830
H         12.19267        2.10358       -1.12603
H         11.67101        1.76618        0.53972
