37

C          2.68914       -2.36091       -1.56309
C          1.98601       -2.39733       -0.19424
C          2.42635       -1.22696        0.71557
Ta         2.02393       -1.40328        2.88058
C          1.05296        0.03018        4.33963
F         -0.03739        0.69238        3.74717
F          0.48802       -0.65044        5.43429
F          1.75039        1.05900        4.94486
C          3.04190       -3.30427        3.26801
C          4.55594       -3.47109        3.15518
C          5.01144       -4.93606        3.32540
C          6.50944       -5.13595        3.23354
C          6.98266       -6.61512        3.38013
F          6.59276       -7.13170        4.57028
F          6.45641       -7.38816        2.39933
F          8.32905       -6.71720        3.30764
F          7.00573       -4.70396        2.02088
F          7.17554       -4.42834        4.21103
C          0.46154       -2.40952       -0.38325
H          3.78245       -2.40147       -1.44786
H          2.44619       -1.42556       -2.09324
H          2.38211       -3.20410       -2.20578
H          2.26879       -3.35644        0.28179
H          2.03999       -0.27768        0.30150
H          3.53168       -1.11945        0.68396
H          0.28776       -1.88202        3.08759
H          2.68684        0.21939        2.65707
H          3.20905       -1.01195        4.14074
H          2.52782       -3.99014        2.55250
H          2.69378       -3.60045        4.27754
H          5.04443       -2.84196        3.91307
H          4.90952       -3.10945        2.17629
H          4.54426       -5.56880        2.55497
H          4.68392       -5.32120        4.30317
H          0.13179       -1.47764       -0.87167
H         -0.06207       -2.47495        0.58171
H          0.13633       -3.25215       -1.01472
