69

O          3.39047        0.04538       -5.28134
C          2.70264        1.01242       -4.59699
O          1.60269        1.35118       -4.98431
C          3.41030        1.58632       -3.37704
C          4.82289        1.07298       -3.06962
B          5.60670        1.85748       -1.85153
C          4.87981        1.70368       -0.37671
C          4.45864        0.31960        0.23806
C          5.57889       -0.75817        0.43137
C          5.17502       -1.98658        1.32987
F          5.05831       -1.64415        2.62667
F          4.01624       -2.54433        0.92578
F          6.14364       -2.93060        1.24042
F          5.92547       -1.27037       -0.78187
F          6.68238       -0.21249        1.00704
F          3.88349        0.51043        1.47467
F          3.50099       -0.24949       -0.56145
F          5.61707        2.32065        0.63884
F          3.64865        2.38325       -0.37625
C          7.21084        1.57611       -1.82581
C          8.08397        2.46129       -1.15545
C          9.47164        2.32343       -1.19725
C         10.08643        1.28155       -1.92446
C          9.22783        0.38648       -2.59319
C          7.83835        0.53452       -2.54069
Si        11.94633        1.07183       -1.96031
C         12.47874       -0.24297       -0.67794
C         11.90248        0.00747        0.72211
C         12.37276       -1.01518        1.74082
C         11.92633       -0.79131        3.23064
C         10.39704       -0.74626        3.60863
C          9.45370       -2.00081        3.39103
C          9.84794       -3.35474        4.09098
C          8.68146       -4.41160        4.17047
F          7.72942       -4.02770        5.03693
F          8.12754       -4.61792        2.96574
F          9.20220       -5.57978        4.61037
F         10.86425       -3.93402        3.40650
F         10.25239       -3.11941        5.36797
F          8.24174       -1.62287        3.88509
F          9.32608       -2.22257        2.06209
F         10.34152       -0.42609        4.93199
F          9.82013        0.26749        2.90914
F         12.51016       -1.74306        4.01422
F         12.42131        0.42520        3.61706
F         11.99941       -2.28869        1.38416
F         13.75427       -1.02341        1.80719
C         12.54990        0.46698       -3.64865
C         12.81879        2.69968       -1.53930
H          4.24097       -0.06763       -4.80662
H          2.73046        1.42255       -2.52754
H          3.42263        2.67962       -3.51296
H          5.46051        1.22799       -3.96192
H          4.78920       -0.01924       -2.88808
H          5.47594        3.06953       -2.03473
H          7.65305        3.29690       -0.59938
H         10.08847        3.05599       -0.66717
H          9.64659       -0.44057       -3.17635
H          7.22323       -0.18655       -3.08572
H         13.57934       -0.27656       -0.64050
H         12.14428       -1.22674       -1.04319
H         10.80428       -0.01054        0.68930
H         12.19256        0.99764        1.10492
H         12.06322       -0.47647       -3.93363
H         13.63658        0.29625       -3.64405
H         12.32378        1.20622       -4.42997
H         12.55510        3.06811       -0.53774
H         12.54536        3.48397       -2.25928
H         13.91122        2.57423       -1.57153
