66

C          9.41160       -2.80004       -5.05876
C          8.81795       -2.05263       -3.86235
C          9.34223       -0.62043       -3.71792
C          8.74911        0.13142       -2.52268
C          9.27106        1.56328       -2.36931
C          8.68361        2.30180       -1.16288
C          9.19236        3.74031       -1.00877
C          8.62550        4.46397        0.22218
Si         9.16433        6.27689        0.43118
C          8.53929        7.30915       -1.01744
C          7.15381        7.52729       -1.18759
C          6.66064        8.30442       -2.23740
C          7.53266        8.89839       -3.16775
C          8.91119        8.66810       -3.00913
C          9.41075        7.89308       -1.95481
Nb         7.34183       10.17131       -4.91147
C          7.42071       12.26237       -4.09245
C          7.69367       13.57492       -4.87503
C          6.76605       13.83424       -6.10317
F          5.46686       13.89519       -5.75390
F          7.09045       15.02603       -6.67689
F          6.91964       12.88101       -7.04461
F          7.56461       14.68260       -4.06034
F          8.97366       13.58718       -5.35165
F          6.27698       12.53843       -3.31052
F          8.45455       12.21589       -3.12431
C          5.97863        9.27702       -6.41150
O          6.47125        7.94122       -6.93740
C          5.64901        7.26332       -7.70759
F          4.45145        6.91077       -7.10975
F          5.28096        7.91316       -8.86926
F          6.24034        6.09509       -8.09094
C          8.41335        6.92759        2.04371
C         11.05098        6.37891        0.54808
H          9.01870       -3.82419       -5.13297
H         10.50732       -2.86790       -4.98090
H          9.18068       -2.28482       -6.00312
H          9.03217       -2.61116       -2.93501
H          7.71878       -2.02706       -3.95269
H          9.12899       -0.05940       -4.64462
H         10.44278       -0.64379       -3.62567
H          8.95955       -0.43418       -1.59718
H          7.64924        0.15495       -2.61868
H          9.05042        2.13301       -3.28845
H         10.37209        1.54254       -2.28303
H          8.91118        1.73548       -0.24157
H          7.58243        2.31732       -1.24442
H          8.94206        4.31031       -1.91937
H         10.29509        3.72463       -0.95682
H          8.89742        3.91306        1.14095
H          7.52164        4.45094        0.18192
H          6.44405        7.08655       -0.47913
H          5.58017        8.45379       -2.32353
H          9.62373        9.11586       -3.71816
H         10.49116        7.75096       -1.86146
H          8.32142        9.52919       -6.21512
H          5.85596       11.05032       -5.27467
H          8.83144       10.98680       -5.37076
H          5.84383        9.93064       -7.28701
H          4.98324        9.07011       -5.98185
H          7.31490        6.89323        2.01381
H          8.70649        7.97272        2.21705
H          8.74497        6.33129        2.90687
H         11.54272        5.99116       -0.35506
H         11.41545        5.79267        1.40464
H         11.38110        7.41811        0.68790
