38

C          6.20141        1.15583        0.66970
S          4.76172        0.14730        1.11921
C          5.03196       -1.32384        0.06386
C          4.79729       -1.06810       -1.42945
C          5.23441       -2.16832       -2.44155
C          4.57718       -3.52988       -2.19086
C          3.01432       -3.71755       -2.03574
F          2.45544       -2.81090       -1.19873
F          2.35858       -3.70081       -3.19759
F          2.78470       -4.94831       -1.47782
F          4.90132       -4.42600       -3.19261
F          5.09782       -4.09368       -1.01475
C          4.77629       -1.56061       -3.89132
O          5.71372       -1.30358       -4.68089
O          3.54471       -1.37479       -3.99128
C          6.77810       -2.30623       -2.36761
C          7.48051       -3.30968       -3.29446
C          8.97963       -2.98525       -3.34161
C          9.79649       -3.97643       -4.14108
C         11.31955       -3.64404       -4.21565
F         11.52440       -2.42880       -4.77544
F         11.87025       -3.62793       -2.97590
F         11.99130       -4.55719       -4.95195
F          9.71870       -5.24684       -3.60455
F          9.36392       -4.06661       -5.44209
H          6.15779        2.06084        1.28935
H          6.17860        1.45336       -0.38673
H          7.13931        0.62360        0.88289
H          4.32609       -2.06603        0.46095
H          6.04380       -1.69772        0.27729
H          5.36452       -0.17338       -1.73128
H          3.74281       -0.82873       -1.60794
H          7.09539       -2.51072       -1.33034
H          7.14170       -1.30142       -2.63207
H          7.05483       -3.21774       -4.30094
H          7.33720       -4.33939       -2.94104
H          9.40910       -2.95529       -2.32690
H          9.12898       -1.99119       -3.79101
