48

C          5.19353       -2.35452        1.31249
C          4.70910       -0.91258        1.52667
B          3.13239       -0.66380        1.12337
C          2.11990       -1.52949        2.05840
C          2.18502       -1.50697        3.47135
C          1.30678       -2.23100        4.27854
C          0.29004       -3.03625        3.71961
C          0.20591       -3.06527        2.31283
C          1.09502       -2.33548        1.51846
Si        -0.85987       -4.01398        4.81457
C         -1.88435       -2.80900        5.89145
C         -2.85256       -3.48446        6.86870
C         -3.61688       -2.52270        7.75268
F         -4.39010       -1.65379        7.04194
F         -4.46319       -3.18601        8.60339
F         -2.79764       -1.76739        8.53775
C         -2.05121       -5.07730        3.79429
C          0.11450       -5.14800        5.98290
C          2.72051        0.94462        1.24689
C          3.44856        1.84431        0.24418
C          3.10878        3.32883        0.23877
O          3.60689        4.15981       -0.49634
O          2.16211        3.71159        1.14929
H          6.25791       -2.50349        1.56914
H          5.06070       -2.65365        0.25991
H          4.60734       -3.06419        1.91842
H          5.35940       -0.24018        0.93560
H          4.89307       -0.62929        2.58362
H          2.95045       -1.00096       -0.06169
H          2.96026       -0.90295        3.95460
H          1.41929       -2.17267        5.36787
H         -0.56413       -3.67309        1.82628
H          1.00429       -2.38807        0.42898
H         -2.43494       -2.13618        5.21562
H         -1.17391       -2.17378        6.44419
H         -2.32520       -4.16955        7.54988
H         -3.61088       -4.07925        6.33681
H         -2.68075       -4.46046        3.13699
H         -2.71635       -5.66954        4.44015
H         -1.49578       -5.78102        3.15811
H          0.82565       -4.56792        6.58882
H          0.69869       -5.87419        5.39968
H         -0.53615       -5.71212        6.66810
H          2.92691        1.28939        2.28205
H          1.62642        1.02398        1.08900
H          3.27816        1.48226       -0.78344
H          4.54040        1.78568        0.38069
H          1.90643        2.88672        1.61998
