43

C          2.33136        0.55084        1.82519
C          2.29839       -0.95681        1.55757
C          3.16424       -1.35932        0.35642
Ta         5.36975       -1.58091        0.44168
C          6.86936       -0.03158       -0.01963
C          7.63375        0.75050        1.04090
N          7.99653       -0.13539        2.17042
C          6.46904       -3.48696        0.35427
C          5.67494       -4.78873        0.23767
C          6.50813       -6.08408        0.14026
C          7.22440       -6.43039        1.44321
N          8.05466       -7.62507        1.28253
C          8.79328       -8.21981        2.28639
N          9.67747       -9.16072        2.14828
N          8.46465       -7.79800        3.57498
H          1.71215        0.83147        2.69237
H          1.95995        1.11236        0.95154
H          3.36648        0.87063        2.01585
H          1.24219       -1.26004        1.40105
H          2.65102       -1.49129        2.45388
H          2.89421       -0.73378       -0.51700
H          2.92222       -2.39771        0.03564
H          4.89614       -1.72527       -1.34045
H          5.18752       -0.41123        1.82781
H          4.86052       -2.41516        1.96210
H          6.31919        0.65973       -0.68890
H          7.57114       -0.58962       -0.67860
H          7.00030        1.60215        1.36221
H          8.57606        1.18477        0.65285
H          7.10558       -0.42853        2.59340
H          8.49048        0.39974        2.88932
H          7.13856       -3.48868        1.23640
H          7.12459       -3.37124       -0.53722
H          5.03438       -4.73865       -0.65814
H          4.98500       -4.87458        1.09520
H          7.25914       -5.96819       -0.66329
H          5.86423       -6.93611       -0.14056
H          6.47230       -6.62373        2.22535
H          7.82668       -5.55939        1.76474
H          8.42110       -7.77394        0.34872
H          9.74763       -9.44744        1.16753
H          8.23695       -6.81407        3.68175
H          9.14382       -8.13376        4.25021
