36

N          1.32095        1.72470        1.30433
C          2.76559        1.57781        0.95966
C          2.98342        1.20959       -0.49930
Al         4.88727        0.99175       -1.21071
C          5.97488       -0.36612       -0.12663
C          6.69032       -1.36942       -0.81549
C          7.48542       -2.32261       -0.16485
C          7.60697       -2.32903        1.23092
C          6.89859       -1.35017        1.94547
C          6.11095       -0.40495        1.27965
C          8.46416       -3.34828        1.94428
C          5.84014        2.79817       -1.39720
C          5.72082        3.87806       -0.30957
C          6.32903        3.42514        1.01582
S          6.23540        4.66091        2.37473
H          1.20315        1.74049        2.32223
H          0.83812        0.88349        0.97758
H          3.25956        0.82340        1.60432
H          3.23952        2.54774        1.19036
H          2.46917        1.95337       -1.13705
H          2.47740        0.24361       -0.70003
H          4.80690        0.35312       -2.73080
H          6.61850       -1.40762       -1.90808
H          8.02316       -3.07796       -0.74943
H          6.96817       -1.32851        3.03894
H          5.58118        0.33017        1.89582
H          8.95680       -4.02248        1.22902
H          7.86977       -3.96931        2.63394
H          9.25106       -2.86652        2.54667
H          5.43391        3.21355       -2.33867
H          6.91081        2.61140       -1.60813
H          4.66296        4.13871       -0.13878
H          6.22050        4.82561       -0.60126
H          7.37740        3.12191        0.88722
H          5.79109        2.55366        1.41528
H          6.80337        5.68176        1.68881
