30

C          2.51821       -2.47245       -2.21351
S          2.75156       -2.63976       -0.42318
C          4.02256       -1.35368       -0.14726
C          4.47839       -1.35382        1.31046
In         5.48853       -3.19250        2.01645
S          4.49228       -3.43496        4.51914
O          5.38609       -3.97844        5.56087
O          3.66865       -2.25596        4.86651
C          3.15363       -4.82927        4.35746
F          3.71887       -6.03740        4.11186
F          2.41800       -4.93700        5.48848
F          2.30449       -4.56012        3.33043
C          7.75642       -2.80520        2.31433
C          8.19878       -1.63043        3.21529
C          9.72783       -1.36533        3.43254
F         10.32951       -2.39958        4.05256
F         10.36612       -1.14184        2.26259
F          9.90539       -0.26320        4.20920
F          7.68543       -0.46808        2.68950
F          7.66449       -1.80986        4.45736
F          8.41420       -3.93993        2.77268
F          8.29288       -2.55412        1.03914
H          1.77080       -3.21931       -2.51109
H          3.45246       -2.67326       -2.75762
H          2.14541       -1.47344       -2.48248
H          3.58245       -0.38286       -0.43941
H          4.86191       -1.55774       -0.83214
H          3.63494       -1.16503        1.98940
H          5.20210       -0.53980        1.46069
H          5.39309       -4.81072        1.37532
