19

C          0.86901        0.06645        0.00891
C          2.39580       -0.06387       -0.01157
C          2.90251       -1.45136       -0.43932
C          4.42837       -1.59327       -0.46992
Al         5.21320       -3.33896       -1.11055
S          4.46541       -3.83230       -3.25069
S          4.75361       -5.02126        0.42401
H          0.54381        1.07502        0.30893
H          0.41932       -0.65145        0.71282
H          0.44140       -0.14033       -0.98457
H          2.80155        0.17214        0.98772
H          2.82132        0.69145       -0.69513
H          2.48898       -1.68076       -1.43890
H          2.46648       -2.20540        0.24342
H          4.83706       -1.38681        0.53752
H          4.84745       -0.81169       -1.13245
H          6.82946       -3.30124       -1.28320
H          3.16002       -3.97282       -2.91819
H          3.56046       -4.51067        0.80869
