24

F          3.65234        0.47418        1.30752
B          2.56575        0.27571        0.44124
S          3.46099       -0.28813       -1.30524
O          4.34233        0.75827       -1.83772
O          3.97930       -1.66639       -1.26438
C          2.10100       -0.50244       -2.74193
C          1.21158        0.71453       -3.11420
C          0.19748        0.50806       -4.29686
F          0.82957        0.20359       -5.44871
F         -0.69099       -0.46912       -4.02739
F         -0.49821        1.65476       -4.49862
F          0.46044        1.06419       -2.03106
F          1.99864        1.76659       -3.46603
F          2.81560       -0.86899       -3.84420
F          1.27648       -1.54442       -2.41000
C          1.61826       -0.96818        0.85981
O          0.80555       -0.52850        2.02738
C         -0.02299       -1.42107        2.54165
F          0.59117       -2.55097        3.03375
F         -0.69391       -0.85606        3.58039
F         -0.97448       -1.88673        1.66150
H          1.98016        1.29671        0.13124
H          2.20161       -1.84745        1.17217
H          0.91549       -1.27059        0.07067
