26

C          1.09896        0.07710       -0.11466
Ga         2.88714       -0.43504        0.59640
C          3.92233        1.36702        0.94747
C          5.45864        1.33061        1.15231
C          6.16384        2.61399        1.73142
C          7.72760        2.65829        1.56809
F          8.30795        1.53451        2.03511
F          8.09280        2.83157        0.28481
F          8.21918        3.70535        2.27912
F          5.68812        3.73718        1.12587
F          5.91314        2.70735        3.06758
F          5.75894        0.30875        2.01760
F          6.05027        1.04924       -0.04992
F          3.67158        2.30385       -0.04760
F          3.39020        1.92449        2.12568
S          3.91645       -1.65620       -1.22597
O          3.05276       -2.83901       -1.48764
O          4.28383       -0.83105       -2.40354
C          5.49670       -2.37792       -0.64832
H          0.53041        0.63546        0.64270
H          0.53402       -0.82337       -0.38847
H          1.20441        0.70807       -1.00682
H          3.05538       -1.39232        1.84110
H          5.29973       -2.98354        0.24389
H          6.20787       -1.57236       -0.43449
H          5.85190       -3.00531       -1.47688
