28

C          4.42471        1.90482        1.01077
S          2.65825        1.61780        0.83643
O          2.02708        2.01030        2.08583
O          2.23764        2.26514       -0.39766
C          2.53338       -0.13875        0.60337
S          2.68266       -1.18891        1.94470
O          3.17355       -2.50797        1.59614
O          3.28288       -0.46268        3.05424
C          0.88825       -1.52508        2.51905
C          0.66402       -2.62424        3.62462
C          1.40556       -2.43829        4.99752
C          0.83346       -3.32399        6.16884
F          0.72896       -4.61886        5.80901
F          1.67962       -3.24789        7.22181
F         -0.37350       -2.89284        6.58056
F          2.70829       -2.77998        4.85234
F          1.31978       -1.15025        5.41484
F         -0.68574       -2.64211        3.89439
F          0.99816       -3.83946        3.12720
F          0.32647       -0.37128        2.95385
F          0.18392       -1.95784        1.43487
S          2.45576       -0.73664       -1.01259
O          3.41121       -0.07730       -1.87293
O          2.30363       -2.16782       -1.05796
F          1.01456       -0.17328       -1.52372
H          4.55472        2.98746        1.13336
H          4.91388        1.54985        0.09688
H          4.76962        1.36063        1.89623
