81

N          2.64641       -0.31356       -4.13927
C          2.18704       -0.26860       -2.72753
Al         2.90051        1.33217       -1.69751
C          2.44183        1.05040        0.27100
C          2.59026       -0.18555        0.93901
C          2.21207       -0.37222        2.27125
C          1.65661        0.68111        3.02814
C          1.50998        1.92474        2.38219
C          1.89169        2.09327        1.04663
Si         1.13633        0.40322        4.80142
C          2.68616        0.08111        5.87463
C          2.39184       -0.15295        7.36032
C          3.61507       -0.45396        8.19920
F          4.53750        0.54841        8.16485
F          3.28642       -0.63238        9.51857
F          4.25499       -1.59093        7.80469
C          0.22450        1.90783        5.50313
C          0.00346       -1.11123        4.93602
C          4.92217        1.41050       -1.98796
C          5.56524        2.62415       -2.31965
C          6.94354        2.71280       -2.53881
C          7.77550        1.57723       -2.44232
C          7.15089        0.35720       -2.11502
C          5.76948        0.28495       -1.89834
Si         9.62283        1.72010       -2.74334
C         10.40836        2.94927       -1.51807
C         10.23302        2.60159       -0.03217
C         10.87638        3.61796        0.91911
C         10.70857        3.26868        2.40094
C         11.37416        4.27166        3.34802
C         11.21307        3.92251        4.83047
C         11.88848        4.92118        5.77513
C         11.72848        4.56110        7.25405
C         10.46873        0.03433       -2.55526
C          9.96912        2.36933       -4.49149
H          2.56090       -1.25213       -4.53734
H          3.63852       -0.07648       -4.18874
H          2.44257       -1.19484       -2.16505
H          1.08248       -0.22282       -2.72342
H          2.29061        2.79391       -2.12880
H          3.00616       -1.04261        0.39770
H          2.34473       -1.36088        2.72663
H          1.08271        2.77412        2.92574
H          1.74590        3.07412        0.58085
H          3.36408        0.94006        5.75392
H          3.21350       -0.78804        5.45098
H          1.70634       -1.00138        7.50803
H          1.91701        0.72801        7.81817
H          0.86399        2.80215        5.51096
H         -0.11407        1.72633        6.53391
H         -0.66410        2.14014        4.89905
H          0.49676       -2.00939        4.53761
H         -0.91064       -0.95098        4.34680
H         -0.29747       -1.32068        5.97347
H          4.95931        3.53197       -2.41410
H          7.37860        3.68676       -2.79399
H          7.75133       -0.55450       -2.02928
H          5.33970       -0.69269       -1.65061
H          9.97265        3.94476       -1.71674
H         11.48315        3.03944       -1.76085
H         10.66300        1.60515        0.17190
H          9.15799        2.51707        0.19833
H         10.44308        4.61568        0.72738
H         11.95275        3.70522        0.68374
H         11.12487        2.26258        2.58709
H          9.63316        3.19846        2.63897
H         10.95722        5.27782        3.16423
H         12.45004        4.34204        3.10618
H         11.62401        2.91383        5.01442
H         10.13846        3.85864        5.07589
H         11.47375        5.92737        5.59368
H         12.96133        4.98704        5.52504
H         10.66668        4.52128        7.53983
H         12.22245        5.29474        7.90713
H         12.16344        3.57387        7.47149
H         10.32478       -0.38664       -1.55014
H         11.55118        0.12393       -2.73121
H         10.07049       -0.69122       -3.27914
H          9.47871        3.33998       -4.65435
H          9.58088        1.67372       -5.24926
H         11.04754        2.50053       -4.66746
