44

C          3.67638       -1.83669       -3.03774
C          2.69015       -2.57646       -2.12170
C          2.69585       -1.94078       -0.71102
B          1.82810       -2.66934        0.43581
S          1.19090       -1.44795        1.81480
O          0.30072       -0.49266        1.14676
O          0.73648       -2.09499        3.04173
C          2.69208       -0.32933        2.47909
C          2.68597        1.15665        2.01065
C          3.90747        2.03213        2.47665
F          4.01311        2.06423        3.82020
F          5.06862        1.58028        1.96542
F          3.73166        3.30529        2.04426
F          2.68349        1.21246        0.65073
F          1.57208        1.77123        2.49070
F          2.63371       -0.33910        3.83562
F          3.87117       -0.90305        2.09692
S          2.44003       -4.42330        1.03648
O          1.64241       -5.01513        2.10748
O          2.63800       -5.19696       -0.19646
C          4.28309       -4.43802        1.74022
C          4.41359       -4.33219        3.29270
C          5.87048       -4.00772        3.80786
C          6.11425       -4.31197        5.33100
F          5.15720       -3.76575        6.10139
F          6.16234       -5.63632        5.56776
F          7.30674       -3.78377        5.69797
F          6.78803       -4.73965        3.11428
F          6.13471       -2.69039        3.61687
F          3.59786       -3.35146        3.75201
F          4.03505       -5.51839        3.84602
F          4.82612       -5.61912        1.34862
F          4.99887       -3.42920        1.15879
C          1.29094       -2.58791       -2.74875
H          4.69542       -1.85408       -2.62296
H          3.38327       -0.78010       -3.15700
H          3.71101       -2.28907       -4.04168
H          3.02661       -3.62098       -2.02827
H          2.29443       -0.91562       -0.81115
H          3.74185       -1.81462       -0.39171
H          0.72097       -3.06123        0.11531
H          0.89744       -1.56234       -2.84543
H          0.58047       -3.16067       -2.13867
H          1.31281       -3.03667       -3.75385
