46

C          8.36180       -1.53716       -3.48020
C          7.81111       -0.83674       -2.23526
C          7.80211       -1.72386       -0.98559
C          7.31017       -1.00686        0.27585
C          7.35957       -1.86091        1.55510
C          6.96800       -1.11370        2.83288
Ta         7.44524       -1.86727        4.83245
C          6.12096       -2.08385        6.60820
O          5.52015       -3.43002        6.93545
C          4.74343       -3.48698        7.98862
F          3.61130       -2.68726        7.92795
F          4.29166       -4.76524        8.16026
F          5.34700       -3.13168        9.18545
C          9.65166       -1.99543        4.72204
C         10.30350       -0.75726        4.07441
C         11.84187       -0.74550        4.09836
C         12.44583        0.48817        3.43085
N         13.92155        0.44201        3.44990
H          8.35719       -0.87425       -4.35826
H          7.76598       -2.42791       -3.73177
H          9.39845       -1.87090       -3.31997
H          6.78620       -0.47942       -2.43463
H          8.40976        0.06709       -2.02876
H          8.82377       -2.10551       -0.80818
H          7.17694       -2.61479       -1.17460
H          6.27769       -0.64624        0.11991
H          7.92339       -0.10144        0.43455
H          8.38522       -2.26464        1.65069
H          6.70584       -2.74130        1.43695
H          5.90292       -0.81640        2.79893
H          7.54482       -0.15608        2.88867
H          6.23578       -3.05862        4.29262
H          7.81098       -3.49612        5.44739
H          7.22212       -0.30183        5.75374
H          5.26646       -1.39054        6.50025
H          6.67356       -1.77468        7.51386
H          9.97451       -2.91399        4.19878
H         10.00932       -2.11188        5.76455
H          9.94297        0.16507        4.56647
H          9.97956       -0.67520        3.02066
H         12.23078       -1.65048        3.60291
H         12.18508       -0.79540        5.14850
H         12.03036        1.39625        3.91369
H         12.12871        0.52231        2.37497
H         14.24231        0.38508        4.41908
H         14.30611        1.31179        3.07668
