25

N          1.35171        0.70223        2.43373
C          2.79095        0.40494        2.18883
C          2.98045       -0.89144        1.41620
In         5.10794       -1.36845        0.90343
C          6.03656        0.58358        0.08311
C          5.50126        0.95614       -1.23189
O          6.05422        0.84599       -2.31542
O          4.20041        1.46243       -1.22816
C          6.33348       -1.62655        2.85748
C          6.27021       -0.44711        3.72011
O          5.55754       -0.27568        4.69904
O          7.09678        0.61899        3.34528
H          1.26943        1.47045        3.10648
H          0.93638       -0.11279        2.89261
H          3.37702        0.36975        3.12498
H          3.18629        1.26823        1.61902
H          2.38153       -0.87571        0.49128
H          2.60954       -1.73655        2.02224
H          5.42375       -2.78994       -0.09189
H          7.12183        0.44436        0.01812
H          5.78248        1.31309        0.86457
H          3.84704        1.38822       -0.32301
H          7.34518       -1.84339        2.49000
H          5.90581       -2.49978        3.35993
H          7.49769        0.39398        2.48793
