35

F          1.35298       -0.42786       -0.39531
Ga         2.81315        0.55858        0.22000
C          3.77716       -0.86760        1.31918
C          3.10654       -2.06575        1.63966
C          3.72854       -3.08391        2.37136
C          5.05662       -2.95000        2.79905
C          5.74033       -1.77701        2.48420
C          5.10332       -0.75273        1.76023
C          7.17125       -1.59531        2.90191
F          7.66808       -2.65344        3.60830
F          8.00811       -1.42348        1.83138
F          7.34947       -0.49033        3.69151
C          3.00756       -4.35476        2.72099
F          1.72552       -4.39014        2.28188
F          3.62843       -5.46566        2.20195
F          2.96079       -4.56823        4.07858
C          3.90622        1.09991       -1.39034
C          4.47780       -0.08940       -2.16534
C          5.24430        0.27762       -3.44454
C          5.81161       -0.93988       -4.16922
N          6.50147       -0.55391       -5.41730
H          2.25757        1.75176        1.12513
H          2.07797       -2.19464        1.29470
H          5.54469       -3.74476        3.36180
H          5.67541        0.15306        1.53536
H          4.72092        1.77378       -1.06763
H          3.25233        1.70255       -2.04525
H          3.65775       -0.78039       -2.42928
H          5.15053       -0.66963       -1.50781
H          6.06612        0.97487       -3.20868
H          4.56405        0.82197       -4.12676
H          4.99207       -1.66909       -4.33149
H          6.55073       -1.43806       -3.51993
H          5.83508       -0.08007       -6.03174
H          6.80335       -1.38957       -5.92214
