33

C          1.06479       -0.16327       -0.17101
O          2.44900       -0.09438        0.09604
C          3.05843       -1.38403        0.09281
C          4.54382       -1.23527        0.39301
O          5.10562       -2.52093        0.31856
C          6.50380       -2.54899        0.65847
C          7.02284       -3.97885        0.57922
N          8.39757       -3.99244        0.97952
C          8.99061       -5.19399        1.00249
C          8.38947       -6.46004        0.65446
C          9.10112       -7.65892        0.72257
C         10.44184       -7.72554        1.12806
C         11.05165       -6.49334        1.46778
C         10.37143       -5.28981        1.41012
C         11.18815       -9.03221        1.22021
H          0.67573        0.86357       -0.15584
H          0.52836       -0.76228        0.59099
H          0.86042       -0.60994       -1.16403
H          2.92758       -1.87211       -0.89292
H          2.58731       -2.03653        0.85369
H          4.68170       -0.78834        1.39989
H          5.00736       -0.54041       -0.33881
H          6.64907       -2.15691        1.68371
H          7.07284       -1.89784       -0.03335
H          6.84984       -4.34862       -0.46369
H          6.35855       -4.61242        1.22062
H          7.34964       -6.48824        0.32398
H          8.58676       -8.58881        0.44802
H         12.10082       -6.49198        1.78803
H         10.87170       -4.35527        1.67794
H         10.59519       -9.85317        0.78750
H         11.42412       -9.32268        2.26238
H         12.15198       -9.00892        0.67966
