29

N          4.86818       -0.80442        1.45826
C          4.07828        0.28274        1.65775
O          3.17855        0.33186        2.50171
C          4.42168        1.46170        0.74167
C          4.26292        1.12597       -0.76588
C          5.44358        1.54446       -1.66946
S          5.04498        0.99171       -3.41760
O          3.60398        0.89269       -3.58674
O          5.86984        1.68672       -4.38425
C          5.63958       -0.84590       -3.51232
C          5.21784       -1.51951       -4.86732
F          3.88432       -1.64863       -4.96924
F          5.67350       -0.83248       -5.92884
F          5.75973       -2.76452       -4.91052
F          6.98275       -0.90391       -3.43418
F          5.08463       -1.58030       -2.51757
S          5.45982        3.38957       -1.70195
O          4.25252        3.89127       -2.31522
O          5.87146        3.86692       -0.40727
F          6.63706        3.75799       -2.70566
C          6.91090        0.91994       -1.17035
O          6.75532       -0.13411       -0.51055
O          7.90193        1.55590       -1.52154
H          4.72392       -1.61739        2.04358
H          5.63640       -0.75562        0.77126
H          5.45639        1.75854        0.95940
H          3.77314        2.29766        1.02470
H          3.32866        1.55073       -1.15486
H          4.18873        0.03803       -0.88188
