43

S          0.83188        0.10939        0.26335
C          2.64881        0.38934        0.04481
C          3.12366       -0.22336       -1.27857
C          4.61801       -0.00376       -1.52605
In         5.46645       -0.81088       -3.45502
C          4.18801        0.11644       -5.08338
C          4.31828       -0.28150       -6.42430
C          3.61926        0.34920       -7.46749
C          2.74177        1.39924       -7.19991
C          2.58693        1.81278       -5.87246
C          3.30674        1.18996       -4.84342
C          1.60281        2.91106       -5.58515
F          1.74836        3.98003       -6.43336
F          0.30283        2.49605       -5.74024
F          1.69738        3.40473       -4.32315
C          3.85631       -0.08551       -8.88513
F          5.06120        0.35569       -9.36926
F          3.87403       -1.44405       -9.02197
F          2.90893        0.37759       -9.75539
C          7.47830        0.20965       -3.75059
C          8.66240       -0.60458       -3.22139
C          8.60152       -0.89255       -1.71815
C          7.70717        0.64439       -5.20091
H          0.70639        0.69552        1.47738
H          3.17816       -0.07118        0.89079
H          2.84000        1.47179        0.05556
H          2.52421        0.20922       -2.09767
H          2.88859       -1.30128       -1.27470
H          5.20834       -0.43634       -0.70015
H          4.84664        1.07726       -1.53194
H          5.49336       -2.57737       -3.63126
H          4.98752       -1.10741       -6.68048
H          2.19059        1.88332       -8.00489
H          3.16956        1.56430       -3.82655
H          7.39436        1.12270       -3.13008
H          9.61685       -0.07388       -3.43886
H          8.73216       -1.56221       -3.76962
H          8.53611        0.04419       -1.14199
H          9.48961       -1.44130       -1.36821
H          7.71431       -1.49209       -1.46308
H          7.72789       -0.21512       -5.89259
H          8.67435        1.17461       -5.33120
H          6.91575        1.31805       -5.56072
