41

F          1.64774       -1.40492       -1.25222
C          2.55082       -0.66011       -0.51143
C          3.94295       -1.27505       -0.77128
F          3.96330       -2.61461       -0.53482
F          4.31399       -1.07963       -2.05537
F          4.86882       -0.70570        0.03121
In         2.14741        1.52847       -0.98458
S          3.28682        3.19322        0.74426
O          2.81231        4.57976        0.63243
O          3.12773        2.50716        2.03842
C          5.25514        3.26287        0.60036
C          5.95121        4.36198       -0.26100
C          5.90642        5.89315        0.14556
C          6.23988        6.28327        1.62730
F          7.39959        5.72442        2.03008
F          6.37850        7.62828        1.69841
F          5.25878        5.92118        2.46477
F          6.84649        6.50908       -0.63657
F          4.70479        6.42422       -0.15635
F          7.28141        4.03072       -0.33014
F          5.43592        4.29332       -1.51615
F          5.77113        3.29146        1.85494
F          5.59302        2.07029        0.02736
S          2.87637        1.78008       -3.52866
O          4.27111        2.08814       -3.86543
O          2.23716        0.62136       -4.17497
C          1.79304        3.23522       -4.30820
C          2.22473        4.72159       -4.13131
C          3.50936        5.30242       -4.85042
C          3.66922        5.08127       -6.39644
F          2.54025        5.41146       -7.05782
F          4.66444        5.88289       -6.84337
F          3.99558        3.81480       -6.68380
F          3.45247        6.65649       -4.65897
F          4.62709        4.84258       -4.25507
F          1.17588        5.50622       -4.54070
F          2.41215        4.93489       -2.79877
F          1.62697        2.96843       -5.62907
F          0.57543        3.12411       -3.69638
F          2.25460       -0.89861        0.81837
H          0.51243        2.07428       -0.79420
