43

C          4.67404        2.87703       -0.98847
C          4.35035        1.50118       -0.39930
C          4.86444        0.33614       -1.25073
C          4.51563       -1.04473       -0.68235
C          4.97672       -2.23102       -1.54067
C          6.49939       -2.41934       -1.57991
C          6.99126       -3.68663       -2.31188
C          6.55495       -5.02319       -1.53916
O          6.09295       -4.87822       -0.37404
O          6.76456       -6.09192       -2.17362
C          6.44199       -3.77335       -3.75723
C          6.77251       -2.61341       -4.70643
C          6.17224       -2.81448       -6.10198
C          8.54067       -3.70307       -2.35889
C          9.25459       -3.83200       -1.00717
C         10.77315       -3.94936       -1.16448
H          4.29282        3.69441       -0.35819
H          4.22976        2.99241       -1.98923
H          5.76054        3.01625       -1.09585
H          3.25801        1.40279       -0.27297
H          4.77877        1.42423        0.61473
H          5.95773        0.42783       -1.36481
H          4.44630        0.42162       -2.27081
H          3.41996       -1.09835       -0.54691
H          4.95168       -1.14302        0.32813
H          4.57227       -2.10515       -2.56120
H          4.55104       -3.15872       -1.13114
H          6.84412       -2.48318       -0.53647
H          6.98117       -1.52971       -2.03116
H          5.34454       -3.88593       -3.71412
H          6.81266       -4.72225       -4.17652
H          7.86497       -2.49770       -4.79983
H          6.40158       -1.66067       -4.28945
H          6.55178       -3.73909       -6.56381
H          6.40764       -1.97840       -6.77942
H          5.07571       -2.90466       -6.05019
H          8.91408       -2.79066       -2.86394
H          8.83398       -4.56363       -2.98415
H          8.86216       -4.71319       -0.47756
H          9.02140       -2.96348       -0.36971
H         11.03761       -4.83859       -1.75797
H         11.28055       -4.03612       -0.19112
H         11.19421       -3.07253       -1.68316
