62

C          8.34729        4.63809       -3.51608
C          7.99616        3.45398       -2.61256
C          8.57037        2.12559       -3.11318
C          8.22584        0.92508       -2.22759
C          8.81581       -0.39404       -2.73459
C          8.46534       -1.60696       -1.86816
C          9.07661       -2.91762       -2.37954
C          8.69806       -4.14927       -1.54318
Si         9.46108       -5.79970       -2.10760
C          8.80377       -7.18273       -1.01057
C          7.96159       -8.19664       -1.49511
C          7.46260       -9.20670       -0.66270
C          7.79118       -9.24774        0.70646
C          8.63854       -8.22928        1.19939
C          9.12891       -7.23121        0.36227
C          7.25390      -10.32043        1.66307
C          8.50676      -10.89870        2.48811
O          8.88754      -10.24551        3.47181
O          9.01900      -11.99032        2.06108
C          6.33428       -9.67978        2.74820
C          5.03270       -9.01614        2.32491
O          3.99290       -9.13974        2.94129
O          5.06449       -8.19737        1.23459
C          6.42110      -11.43098        0.96428
C          6.97697      -12.21077       -0.24625
O          6.27526      -12.37515       -1.24378
O          8.18869      -12.70722       -0.12881
C          9.00691       -6.11846       -3.91636
C         11.34628       -5.70096       -1.94904
H          7.92387        5.57912       -3.13718
H          7.96283        4.48601       -4.53598
H          9.43733        4.76935       -3.59203
H          6.89973        3.36603       -2.52766
H          8.36398        3.64611       -1.59039
H          9.66847        2.21427       -3.19537
H          8.20628        1.93730       -4.13897
H          7.12818        0.82943       -2.15322
H          8.58297        1.11381       -1.19980
H          9.91443       -0.29793       -2.79946
H          8.46781       -0.57371       -3.76744
H          7.36789       -1.71596       -1.81516
H          8.80202       -1.43028       -0.83148
H         10.17483       -2.80566       -2.41028
H          8.76184       -3.06873       -3.42691
H          7.60139       -4.27441       -1.53531
H          8.98228       -3.98955       -0.48811
H          7.67827       -8.21687       -2.55062
H          6.81311       -9.96675       -1.09816
H          8.92850       -8.25947        2.25133
H          9.78807       -6.47223        0.79510
H          6.93268       -8.93942        3.30102
H          6.05934      -10.44868        3.48109
H          5.95154       -8.24765        0.81436
H          5.45900      -11.01908        0.62735
H          6.18500      -12.18267        1.73599
H          8.58396      -12.41446        0.84784
H          7.91760       -6.13848       -4.06446
H          9.40991       -7.08094       -4.26239
H          9.41810       -5.33239       -4.56625
H         11.64920       -5.54287       -0.90389
H         11.76261       -4.87857       -2.54939
H         11.81085       -6.63763       -2.28845
