33

C          2.48763       -1.94644       -0.61091
S          2.73983       -0.22719       -0.07620
C          3.75427        0.41398       -1.49828
C          4.14052        1.86377       -1.31197
Nb         5.37912        2.91930       -2.88470
C          4.72356        3.91252       -4.73145
C          5.31425        5.33722       -4.52858
C          6.13959        5.79285       -5.71845
O          5.70651        6.51579       -6.61773
N          7.42905        5.31474       -5.74076
C          7.59548        2.96746       -3.07507
C          8.50114        2.22375       -2.09006
H          1.89030       -2.45596        0.15752
H          3.44685       -2.47426       -0.71989
H          1.94485       -1.99156       -1.56688
H          3.15690        0.27681       -2.41125
H          4.64466       -0.22712       -1.57275
H          4.70461        2.00037       -0.37032
H          3.23827        2.49887       -1.22094
H          4.33001        1.77331       -3.73161
H          5.95158        1.25058       -2.78063
H          5.01166        4.10411       -1.52608
H          3.65445        3.94719       -4.97322
H          5.22204        3.37969       -5.56028
H          5.94894        5.39208       -3.61309
H          4.51120        6.06836       -4.37621
H          7.74000        4.61515       -5.07218
H          7.95236        5.42597       -6.60135
H          7.85289        4.05257       -3.05801
H          7.78621        2.60439       -4.10722
H          8.30822        2.54383       -1.05389
H          9.58143        2.37855       -2.27440
H          8.30158        1.14374       -2.13176
