36

C          2.72030       -2.58166        1.64834
S          4.41269       -2.10214        2.09596
C          4.37896       -0.32668        1.61255
C          5.72185        0.34255        1.88340
Al         5.80544        2.21092        1.19405
S          4.58081        3.41677        2.95848
O          3.52677        2.48015        3.40261
O          5.45472        3.99950        3.99445
C          3.40197        4.92319        2.39330
C          3.96651        6.34864        2.10017
C          4.74717        6.48667        0.74704
C          5.65805        7.76351        0.63370
F          4.95181        8.88196        0.92467
F          6.71577        7.69583        1.45071
F          6.10344        7.87204       -0.63648
F          5.54141        5.40556        0.57142
F          3.85111        6.54715       -0.27815
F          2.91766        7.23616        2.05325
F          4.77311        6.72820        3.12596
F          2.69900        4.50335        1.29834
F          2.53146        5.07099        3.42902
S          8.05810        2.95216        1.35255
O          8.79438        1.90799        0.59053
O          8.32266        4.36268        0.99401
C          8.60451        2.78663        3.07869
H          2.60523       -3.64565        1.89262
H          2.54001       -2.44500        0.57221
H          1.97867       -2.00427        2.21834
H          3.57795        0.16415        2.18375
H          4.11691       -0.28607        0.54278
H          6.53795       -0.19577        1.37050
H          5.94979        0.31472        2.96068
H          5.19872        2.60625       -0.22968
H          8.48210        1.74339        3.39358
H          8.00335        3.46295        3.69838
H          9.66460        3.07393        3.08276
