15

N          3.75562       -0.50894        0.61221
C          3.12601        0.31343       -0.43818
Ta         3.00707       -1.86060       -1.00827
S          2.94763       -4.01357       -2.23484
N          4.77174       -1.29455       -1.89034
H          3.25966       -0.57929        1.49282
H          4.76095       -0.41140        0.73025
H          3.86545        0.96961       -0.92258
H          2.26986        0.88144       -0.06929
H          1.64230       -1.46992        0.15030
H          1.63113       -1.38604       -2.07053
H          3.13779       -3.12669        0.29788
H          2.71544       -3.58490       -3.50351
H          5.33713       -2.00659       -2.34973
H          5.25175       -0.39544       -1.91829
