24

N          2.89421        0.34897        1.81490
C          3.82819        1.34628        1.93199
O          4.08698        1.85346        3.02480
C          4.48801        1.79319        0.62916
C          4.28057        0.92397       -0.61627
Ga         5.21683        1.56576       -2.28053
S          4.23417        3.73088       -2.76789
O          3.53838        4.27578       -1.57101
O          5.12196        4.66068       -3.50605
C          2.87873        3.36615       -3.94770
C          7.22505        1.89085       -1.93185
F          7.81440        0.73801       -1.40415
F          7.98400        2.18780       -3.04153
F          7.52068        2.87755       -1.01669
H          2.46105       -0.00768        2.65682
H          2.75661       -0.12211        0.92920
H          5.55654        1.91102        0.86514
H          4.12234        2.81595        0.43491
H          3.21095        0.86899       -0.88274
H          4.62996       -0.10874       -0.44348
H          4.99351        0.73030       -3.60604
H          2.17841        2.65879       -3.48630
H          3.30952        2.95458       -4.86764
H          2.38863        4.33043       -4.13695
