54

N          1.85404        0.10662       -0.37032
C          2.93601       -0.13122        0.63063
C          3.90783        1.03178        0.71881
Ta         5.79879        0.78008        1.84335
C          6.83815       -0.81438        0.67553
C          7.90681       -1.62698        1.12036
C          8.54898       -2.54621        0.28907
C          8.14381       -2.73557       -1.05039
C          7.09058       -1.92889       -1.51841
C          6.47176       -0.99302       -0.68171
Si         8.97091       -4.04790       -2.09684
C         10.84651       -3.71584       -2.19063
C         11.19578       -2.33664       -2.75997
C         12.68165       -2.09491       -2.91384
F         13.35512       -2.16650       -1.73135
F         13.27388       -3.00303       -3.75147
F         12.94396       -0.86242       -3.44046
C          8.75658       -5.75952       -1.32129
C          8.28532       -4.08191       -3.86084
C          6.82320        2.55885        1.04726
C          8.29895        2.85693        1.30928
C          8.83034        4.07868        0.55170
N         10.26195        4.31324        0.83473
H          1.35052       -0.76761       -0.54925
H          2.29645        0.35614       -1.25898
H          3.48943       -1.06705        0.40996
H          2.45518       -0.27554        1.61031
H          3.38097        1.94631        1.04577
H          4.29603        1.25174       -0.30572
H          6.26071       -0.42884        3.07583
H          6.34303        1.62205        3.31852
H          4.56516        0.65147        3.13180
H          8.22325       -1.54497        2.16356
H          9.36793       -3.14792        0.70003
H          6.73987       -2.02944       -2.55069
H          5.66462       -0.39171       -1.11484
H         11.30690       -4.51037       -2.80020
H         11.26360       -3.81660       -1.17617
H         10.80183       -1.53392       -2.11878
H         10.76047       -2.18960       -3.76039
H          9.14110       -5.76890       -0.29163
H          9.28878       -6.53323       -1.89413
H          7.69239       -6.03064       -1.27997
H          8.39639       -3.11295       -4.36747
H          7.21612       -4.33622       -3.86314
H          8.81291       -4.83937       -4.45901
H          6.19927        3.43161        1.32888
H          6.67119        2.41794       -0.04942
H          8.92470        1.98859        1.04001
H          8.44602        3.01382        2.39303
H          8.18561        4.94891        0.79486
H          8.72822        3.90731       -0.53358
H         10.38618        4.43511        1.84240
H         10.57026        5.18704        0.40403
