55

S          1.02839        0.09469        0.20680
C          2.86682        0.03782        0.18999
C          3.37671        0.93996       -0.92948
C          4.90464        0.88537       -1.04784
C          5.47904        1.76764       -2.18226
C          5.00451        1.31904       -3.55617
C          4.93611        2.21348       -4.64393
C          4.52320        1.79367       -5.90634
C          4.14943        0.45933       -6.12469
C          4.22072       -0.45003       -5.06201
C          4.65208       -0.01989       -3.80996
C          3.66621       -0.00598       -7.46342
C          2.10300       -0.05189       -7.68724
C          1.25096        1.27617       -7.63739
C          1.44937        2.44318       -8.68795
C          1.30331        2.19575      -10.24456
C         -0.05403        1.63242      -10.80838
F         -1.10163        2.35801      -10.37633
F         -0.01166        1.71089      -12.15784
F         -0.24411        0.34773      -10.47353
F          1.46889        3.42276      -10.81959
F          2.29911        1.38902      -10.67985
F          0.52152        3.38636       -8.35697
F          2.67690        2.99125       -8.51455
F         -0.05893        0.89087       -7.74745
F          1.41718        1.84820       -6.42224
F          1.84604       -0.65217       -8.88864
F          1.57152       -0.84741       -6.71445
F          4.18796        0.74441       -8.49482
F          4.05671       -1.31310       -7.69759
C          5.05858        3.28433       -1.78290
O          5.60050        3.67838       -0.72024
O          4.23721        3.87124       -2.52686
C          7.02713        1.66873       -2.10241
C          7.80685        2.65685       -2.97848
C          9.29367        2.62620       -2.63531
S         10.32225        3.86944       -3.50870
H          0.84259       -0.70874        1.28119
H          3.18613       -1.00284        0.03141
H          3.24375        0.37732        1.16506
H          3.06725        1.97930       -0.74423
H          2.90639        0.64287       -1.88059
H          5.24014       -0.16419       -1.15132
H          5.34903        1.26867       -0.11715
H          5.16537        3.26193       -4.46974
H          4.48121        2.51201       -6.72436
H          3.94633       -1.49360       -5.21582
H          4.70864       -0.75673       -3.00846
H          7.34335        0.63304       -2.32975
H          7.27928        1.87629       -1.05095
H          7.41943        3.67252       -2.81209
H          7.67107        2.42661       -4.04809
H          9.72906        1.62986       -2.80200
H          9.44209        2.87396       -1.57327
H         10.00806        3.48363       -4.76806
