12

F          2.53668        0.42988       -1.53356
N          2.42548       -0.08177       -0.14066
C          2.79817        0.93663        0.64105
C          2.27435        2.39984        0.43516
C          0.71601        2.51700        0.30409
F          0.08470        1.97343        1.36974
F          0.35981        3.83854        0.26177
F          0.23666        1.94616       -0.81183
F          2.59635        3.18992        1.52066
F          2.79752        3.00298       -0.66946
F          2.52600        0.57605        1.94928
F          4.32389        1.26309        0.72545
