18

O          1.49913       -1.09721        0.15441
Al         2.99987       -0.51270       -0.50342
S          4.13382        0.81675        1.33003
O          5.01053       -0.02366        2.16695
O          4.68518        2.09828        0.84356
C          2.81257        1.37847        2.74135
C          1.90292        2.62188        2.53226
C          0.91593        2.59244        1.31930
F          0.02499        1.57860        1.43158
F          0.21261        3.75068        1.28659
F          1.56411        2.46326        0.15293
F          1.11170        2.80250        3.65018
F          2.67304        3.73264        2.39738
F          2.00772        0.30794        3.02093
F          3.55282        1.64984        3.85552
F          4.11454       -1.76299       -0.72152
H          0.78825       -0.47563        0.34538
H          2.95856        0.54652       -1.70291
