29

C          2.68733        0.63675       -0.05612
C          2.74546       -0.20669       -1.32797
Nb         2.80049        0.84411       -3.23879
S          0.63969        1.85627       -3.86213
O         -0.37254        1.54910       -4.90092
O          0.47666        1.16088       -2.50823
C          0.28486        3.60555       -3.45795
C          5.02070        1.26296       -3.02618
C          6.05184        0.12896       -2.92145
S          6.75064       -0.28757       -4.55978
C          7.85987       -1.63941       -4.07614
H          2.67213        0.02636        0.86564
H          1.78166        1.26131       -0.04481
H          3.55463        1.31158        0.02428
H          1.86842       -0.87202       -1.40914
H          3.65805       -0.83369       -1.36005
H          3.03684        2.61890       -3.26160
H          1.91998       -0.05731       -4.48141
H          3.74742       -0.16250       -4.33926
H          0.48995        4.20750       -4.35209
H          0.92555        3.91307       -2.62540
H         -0.78059        3.65445       -3.19746
H          5.06143        1.84795       -2.08299
H          5.34315        1.97911       -3.80209
H          5.61453       -0.79876       -2.51239
H          6.91118        0.40014       -2.27846
H          8.35939       -1.99841       -4.98599
H          7.29558       -2.47382       -3.63361
H          8.62608       -1.30337       -3.36086
