27

N          0.95052       -0.09287        0.22669
Al         2.71291       -0.70554        0.10678
C          3.67136       -0.17304       -1.62739
C          3.62587        1.32182       -1.95279
C          4.26530        1.83979       -3.24479
O          4.31154        3.03656       -3.54858
N          4.78310        0.87017       -4.05643
C          3.74708        0.11359        1.66431
C          3.22434       -0.33129        3.03402
C          3.87624        0.21560        4.30436
O          3.60492       -0.19089        5.43933
N          4.78415        1.22012        4.10276
H          0.20449       -0.62873       -0.21251
H          0.72162        0.89325        0.11268
H          2.69098       -2.35003        0.19643
H          3.18551       -0.75836       -2.43160
H          4.71836       -0.52668       -1.55830
H          4.08918        1.91959       -1.14856
H          2.57983        1.67652       -1.98886
H          4.74966       -0.09629       -3.74850
H          5.23769        1.13561       -4.92006
H          3.67012        1.21433        1.56164
H          4.81785       -0.14359        1.55395
H          3.26956       -1.42901        3.13410
H          2.14905       -0.09625        3.12427
H          5.05083        1.45628        3.15289
H          5.30028        1.58012        4.89494
