28

N          3.08056       -1.86678       -0.14282
C          2.59102       -0.45253       -0.13604
C          3.27781        0.39712        0.88827
S          2.46807        0.83557        2.25443
O          3.09976        1.96674        2.94988
O          1.00671        0.79087        2.10749
C          2.68726       -0.51988        3.63178
C          1.97938       -0.33651        4.99984
F          2.37180        0.79502        5.61900
F          0.63738       -0.31120        4.87195
F          2.27541       -1.37556        5.85168
F          2.25045       -1.73437        3.13538
F          4.02921       -0.66340        3.90330
C          4.75350        0.69645        0.75384
C          5.06110        1.81648       -0.27236
C          4.55232        3.17291        0.20227
S          4.60609        4.50596       -1.05512
H          2.53216       -2.40856       -0.81788
H          2.87554       -2.26670        0.77636
H          1.50130       -0.37535        0.01412
H          2.80340       -0.05732       -1.14847
H          5.28736       -0.21631        0.43472
H          5.17544        0.98416        1.72846
H          4.59608        1.57204       -1.24085
H          6.15075        1.86972       -0.45067
H          5.08325        3.50803        1.10299
H          3.48950        3.09641        0.47409
H          5.93500        4.44380       -1.31290
