45

N          1.88572       -5.63569        1.31141
C          3.29341       -5.59697        1.15561
N          4.01096       -6.42691        0.47306
N          3.86393       -4.55964        1.85458
C          5.31489       -4.41012        1.96679
C          5.65397       -3.15632        2.76888
C          7.15880       -2.92247        2.93789
C          7.49038       -1.68094        3.78121
B          9.08169       -1.35329        4.03904
C          9.90825       -0.90220        2.69142
C          9.37960        0.25071        1.76726
C          9.10091        1.63883        2.44853
C          8.94345        2.84491        1.44742
F          8.06154        2.56915        0.46451
F          8.48110        3.92346        2.12726
F         10.11704        3.19260        0.88646
F          7.94064        1.57891        3.15621
F         10.10944        1.98051        3.29274
F         10.28186        0.49013        0.75243
F          8.21200       -0.14047        1.16840
F         11.22551       -0.51107        2.98741
F         10.06338       -1.96258        1.77774
C          9.82443       -2.65627        4.73167
C         11.22262       -2.53990        5.37869
C         11.31490       -1.74237        6.67185
O         12.08040       -2.01738        7.58151
O         10.50103       -0.66708        6.77579
H          1.43880       -6.24708        0.63487
H          1.45258       -4.71364        1.30516
H          3.41458       -7.06258       -0.06422
H          3.34064       -4.24424        2.66613
H          5.73008       -4.35124        0.95017
H          5.76347       -5.30448        2.43536
H          5.18812       -3.22903        3.77060
H          5.19916       -2.27800        2.27909
H          7.61839       -2.83370        1.93965
H          7.60943       -3.81903        3.39748
H          7.03157       -1.81708        4.77996
H          6.96367       -0.81561        3.34349
H          9.11382       -0.33097        4.75280
H          9.90279       -3.44478        3.96383
H          9.13419       -3.07001        5.49107
H         11.92608       -2.06452        4.67467
H         11.64654       -3.52690        5.61687
H          9.94836       -0.59565        5.94424
