43

I          3.76497        1.68581        1.99267
C          3.35830        0.32114        0.38880
C          3.69778        0.66842       -0.91264
C          3.51246       -0.25648       -2.02147
C          3.89039        0.03524       -3.31117
C          4.46293        1.28736       -3.66847
C          4.62959        2.22324       -2.61060
C          4.26301        1.94067       -1.31541
C          5.00355        1.56026       -4.99969
C          4.15343        1.20752       -6.27120
C          2.70575        1.81463       -6.42828
C          2.48007        3.37799       -6.52998
C          3.18876        4.17198       -7.69301
C          2.55237        5.58557       -7.98487
F          2.40588        6.30551       -6.85724
F          3.37617        6.26285       -8.81643
F          1.35496        5.47739       -8.59033
F          4.48655        4.38364       -7.37869
F          3.12079        3.47545       -8.85951
F          1.12907        3.53256       -6.71837
F          2.80539        3.96004       -5.35521
F          2.17974        1.27624       -7.57491
F          1.92817        1.40456       -5.39616
F          4.83615        1.57542       -7.40712
F          3.96704       -0.14581       -6.33902
F          5.36597        2.88618       -5.15987
F          6.22873        0.83895       -5.27661
C          2.82651       -0.98859        0.88403
C          1.39910       -0.96727        1.47477
C          0.34333       -0.46814        0.49324
N         -0.99534       -0.46846        1.11642
H          3.07012       -1.23533       -1.83421
H          3.74743       -0.73487       -4.07000
H          5.06124        3.20110       -2.82959
H          4.41085        2.70280       -0.54933
H          3.49680       -1.41994        1.65302
H          2.84449       -1.70320        0.04373
H          1.37833       -0.32567        2.37031
H          1.13794       -1.98921        1.81000
H          0.39364       -1.07100       -0.43646
H          0.58740        0.56580        0.20743
H         -1.28390       -1.43025        1.30873
H         -1.68367       -0.09294        0.46188
