38

C          7.67241       -2.16875        0.12772
S          6.67104       -1.31382        1.37667
C          6.05268        0.07812        0.35313
C          5.11411        0.98291        1.14889
Ga         5.82482        1.80790        2.88868
C          4.51418        3.46436        3.22589
C          3.15602        3.15887        3.90336
C          2.11016        4.30984        4.10069
F          2.61047        5.32322        4.84031
F          1.68313        4.81869        2.92495
F          1.00868        3.83967        4.75618
F          2.50310        2.19813        3.16798
F          3.38412        2.65557        5.15647
F          5.12242        4.44417        4.02800
F          4.19176        4.13775        2.02896
C          7.70677        2.59098        2.86067
C          8.31099        3.02267        1.51664
C          7.49638        4.11078        0.80880
C          8.01866        4.53157       -0.56445
N          9.34040        5.18624       -0.47232
H          8.10982       -3.05495        0.60648
H          8.48816       -1.52789       -0.23860
H          7.05894       -2.49568       -0.72577
H          5.56769       -0.37501       -0.53253
H          6.93425        0.63717       -0.00012
H          4.19119        0.43305        1.39447
H          4.81045        1.81266        0.48892
H          5.61924        0.84872        4.14979
H          8.34929        1.82135        3.31935
H          7.71412        3.44514        3.56075
H          8.38032        2.15056        0.84097
H          9.34928        3.38208        1.63803
H          7.43374        5.00417        1.45881
H          6.45638        3.76807        0.69186
H          7.25624        5.17186       -1.05290
H          8.13658        3.63675       -1.19966
H          9.27243        5.97978        0.16907
H          9.60621        5.57378       -1.37887
