32

C          1.62069        0.27386        0.43849
C          3.10088        0.19525        0.03313
C          4.04873        0.81317        1.07330
Ta         6.18105        0.93222        0.71122
C          6.53117       -1.12204       -0.26042
C          5.68402       -1.46911       -1.43412
O          4.97003       -2.46152       -1.52744
O          5.69525       -0.56176       -2.46386
C          6.52620        2.06275        2.61252
C          7.69383        2.95280        3.05034
C          9.01443        2.28606        3.43261
O          9.90711        2.90445        4.02732
N          9.14253        0.98139        3.07676
H          0.96826       -0.17341       -0.32781
H          1.30077        1.31768        0.58774
H          1.44150       -0.26077        1.38465
H          3.23124        0.69677       -0.94013
H          3.36888       -0.85670       -0.14471
H          3.97740        0.26419        2.03710
H          3.73774        1.85392        1.30201
H          6.53331        1.27568       -1.03620
H          7.23527       -0.10960        1.69307
H          6.84086        2.54087        0.33130
H          6.48879       -1.95069        0.45799
H          7.58111       -0.99599       -0.58252
H          6.12760        0.25244       -2.07221
H          6.22734        1.40536        3.45656
H          5.66673        2.74872        2.43995
H          7.44651        3.58757        3.91973
H          7.94250        3.64898        2.23116
H          8.40345        0.50561        2.53665
H         10.02832        0.52465        3.25703
