29

I          1.13592        0.76564        0.68485
Al         3.60827        0.84992       -0.09100
S          4.43343       -1.42538       -0.58639
O          5.74020       -1.18479       -1.23438
O          4.39861       -2.40534        0.51434
C          3.42548       -2.26307       -2.11009
C          2.54082       -3.52189       -1.87644
C          1.25351       -3.36536       -0.99577
F          0.37483       -2.52182       -1.57152
F          0.65267       -4.58301       -0.89814
F          1.52906       -2.93802        0.23893
F          2.09356       -3.97997       -3.09939
F          3.30623       -4.50475       -1.33258
F          2.64939       -1.27310       -2.64885
F          4.34922       -2.62865       -3.04031
C          4.83034        1.27902        1.42078
C          6.31729        1.43931        1.07131
C          7.19970        1.84616        2.26107
C          8.68474        1.97125        1.90626
H          3.74446        1.59771       -1.50230
H          4.69991        0.50937        2.20100
H          4.43828        2.21530        1.86156
H          6.43794        2.19037        0.26931
H          6.70554        0.49910        0.64609
H          7.07345        1.10346        3.06773
H          6.83336        2.80316        2.67336
H          9.08414        1.01440        1.53672
H          9.29152        2.27392        2.77325
H          8.84310        2.71755        1.11198
