23

O          2.92460       -0.76986        1.98812
C          4.06079       -1.32438        1.50042
O          4.07058       -2.48512        1.13478
C          5.26307       -0.39123        1.44348
C          5.11754        0.68910        0.34098
Ga         5.85134        2.49092        0.79524
S          4.42925        2.75282        2.86688
O          3.23883        1.88128        2.76187
O          5.09531        2.76538        4.16675
F          3.74763        4.28113        2.75103
S          8.07624        2.40159        1.67133
O          8.84249        1.64057        0.65308
O          8.59506        3.72806        2.06256
C          8.13541        1.39932        3.18846
H          3.07817        0.17329        2.26172
H          6.15584       -1.00300        1.26669
H          5.36810        0.06023        2.44443
H          4.05483        0.87470        0.12390
H          5.57411        0.33445       -0.59317
H          5.70193        3.80862       -0.02662
H          7.83323        0.37244        2.95260
H          7.47180        1.85250        3.93434
H          9.18302        1.43009        3.51659
