39

S          0.54347        0.09655        0.21864
C          2.33302        0.32334       -0.19837
C          2.89173       -0.98212       -0.76103
C          4.36737       -0.90133       -1.11825
P          5.05074       -2.68278       -1.60311
C          4.94843       -2.36340       -3.53550
C          5.44414       -1.26055       -4.24344
C          5.30457       -1.15194       -5.63538
C          4.65771       -2.14928       -6.37530
C          4.16019       -3.26137       -5.67391
C          4.30761       -3.35722       -4.28900
C          4.49206       -2.03593       -7.87244
C          6.95136       -2.07649       -1.52365
C          7.60183       -2.57017       -0.24115
C          9.10417       -2.37743       -0.07194
O          9.73022       -2.63144        0.93841
O          9.75732       -1.88200       -1.16698
H          0.30145        1.35906        0.64516
H          2.86949        0.61543        0.71521
H          2.41822        1.13446       -0.93486
H          2.31006       -1.27099       -1.65290
H          2.74388       -1.79111       -0.02238
H          4.95783       -0.58648       -0.24010
H          4.53167       -0.16574       -1.92188
H          5.57975       -4.04808       -1.90833
H          3.67382       -3.22716       -1.68186
H          5.08050       -3.00189       -0.14490
H          5.95490       -0.45371       -3.70935
H          5.70351       -0.27478       -6.15625
H          3.64983       -4.05817       -6.22615
H          3.91192       -4.23032       -3.75618
H          4.98635       -1.13386       -8.26013
H          3.42936       -1.98296       -8.16011
H          4.92128       -2.90518       -8.39564
H          7.01876       -0.97945       -1.61546
H          7.39755       -2.54447       -2.41824
H          7.41332       -3.65346       -0.12397
H          7.13214       -2.11323        0.64415
H          9.05695       -1.74165       -1.84397
