60

O          2.97796       -0.02114        3.46558
C          3.12724        1.03781        2.62603
O          2.52192        2.07221        2.82031
C          4.10252        0.81502        1.47510
C          4.45311       -0.64124        1.18588
Nb         5.79210       -2.13425        2.08563
C          4.79884       -3.45205        3.54104
C          4.85597       -4.80009        3.11799
C          4.31363       -5.83854        3.88481
C          3.65319       -5.56240        5.08638
C          3.56214       -4.23430        5.50968
C          4.13561       -3.19919        4.75740
C          2.84822       -3.89842        6.79375
F          2.42551       -5.00530        7.47135
F          3.63990       -3.19511        7.65480
F          1.74069       -3.13007        6.57942
C          4.39649       -7.27122        3.43222
F          5.20122       -7.44469        2.35311
F          4.87239       -8.09537        4.41615
F          3.16813       -7.77458        3.08790
C          7.99119       -2.17151        1.75686
C          8.70767       -1.19076        1.04044
C         10.06580       -1.33089        0.74424
C         10.80169       -2.45953        1.16150
C         10.09728       -3.43489        1.89844
C          8.73899       -3.28889        2.18623
Si        12.61552       -2.62369        0.75572
C         13.58036       -1.19038        1.57618
C         15.08760       -1.19351        1.29975
C         15.83310       -0.01894        1.89612
F         15.71525        0.04713        3.25213
F         17.17548       -0.08735        1.62660
F         15.40301        1.17843        1.40491
C         13.31611       -4.26676        1.38556
C         12.90598       -2.51601       -1.11557
H          3.54744       -0.73533        3.09144
H          5.02027        1.35886        1.75477
H          3.67479        1.35348        0.61303
H          5.20719       -0.66767        0.35876
H          3.57299       -1.19052        0.78325
H          6.20698       -3.06390        0.59498
H          6.44664       -0.57320        2.52253
H          6.69186       -2.05477        3.58215
H          5.34924       -5.05814        2.17411
H          3.22380       -6.36518        5.68370
H          4.07268       -2.17933        5.14675
H          8.19459       -0.28236        0.70939
H         10.56137       -0.53293        0.17879
H         10.61799       -4.32673        2.26123
H          8.25120       -4.07526        2.77380
H         13.39254       -1.23121        2.66028
H         13.13491       -0.24642        1.22360
H         15.29991       -1.16969        0.22002
H         15.56809       -2.09794        1.70264
H         13.22902       -4.35060        2.47827
H         14.37840       -4.37657        1.12203
H         12.77685       -5.11598        0.94220
H         12.51383       -1.57181       -1.52060
H         12.37906       -3.33457       -1.62641
H         13.97131       -2.58390       -1.38248
