38

C          1.10783        0.37977       -0.25521
C          2.62622        0.24557       -0.10593
C          3.30126        1.45481        0.55300
C          4.81474        1.28425        0.73958
C          5.52882        2.45980        1.43321
C          7.02799        2.23482        1.67004
In         8.03713        3.86245        2.86158
C          8.88340        5.37701        1.39088
C          9.18131        5.05538        0.05304
C          9.68134        5.99695       -0.85912
C          9.91315        7.32371       -0.47322
C          9.61043        7.67314        0.85289
C          9.10851        6.72270        1.75015
C         10.47811        8.33855       -1.44063
N          6.38757        4.83526        3.89971
H          0.66438       -0.50769       -0.73208
H          0.84238        1.25455       -0.86882
H          0.62235        0.50852        0.72443
H          3.07813        0.07622       -1.09868
H          2.85534       -0.65793        0.48523
H          2.83209        1.64048        1.53598
H          3.10024        2.35793       -0.05138
H          5.28420        1.10773       -0.24594
H          4.99998        0.36640        1.32717
H          5.02651        2.66403        2.39534
H          5.37515        3.37105        0.82568
H          7.54690        2.11735        0.70167
H          7.17564        1.28564        2.21431
H          9.24072        3.34772        4.06782
H          9.01515        4.03319       -0.30565
H          9.89565        5.69804       -1.89199
H          9.76936        8.70647        1.18361
H          8.87616        7.05127        2.76967
H         10.55607        7.92012       -2.45454
H         11.48645        8.66886       -1.14068
H          9.85108        9.24260       -1.49829
H          5.87232        5.40190        3.21692
H          6.74972        5.52373        4.56713
