37

N          3.30066       -7.10414       -0.58921
C          3.40480       -6.06428       -1.63144
C          4.19419       -4.85653       -1.13451
C          4.32972       -3.75959       -2.19638
C          5.08451       -2.50132       -1.72608
B          6.65821       -2.66664       -1.33966
C          7.34489       -1.30730       -0.73778
C          6.74022       -0.68134        0.57684
C          6.61152       -1.63368        1.81945
C          6.38131       -0.90159        3.19460
F          5.36991       -0.01188        3.12834
F          6.05930       -1.82412        4.13582
F          7.48871       -0.26261        3.61703
F          5.54844       -2.46671        1.64730
F          7.73159       -2.38605        1.97982
F          7.52115        0.38005        0.97663
F          5.49256       -0.17725        0.33038
F          8.68944       -1.46735       -0.42641
F          7.29296       -0.23075       -1.63125
S          7.66785       -3.19627       -2.95978
O          6.85968       -2.99525       -4.18421
O          9.06110       -2.71211       -3.00457
C          7.82605       -5.00758       -2.80092
H          2.67023       -7.84815       -0.89272
H          2.87990       -6.69811        0.24951
H          2.41756       -5.71763       -2.00193
H          3.92437       -6.50940       -2.49664
H          5.18644       -5.18822       -0.79252
H          3.68947       -4.44009       -0.24201
H          3.31317       -3.47230       -2.52528
H          4.82402       -4.16886       -3.09263
H          4.53913       -2.09306       -0.85769
H          4.99534       -1.73853       -2.51734
H          6.91098       -3.57150       -0.56162
H          6.83312       -5.46274       -2.70843
H          8.44255       -5.23246       -1.92371
H          8.31936       -5.33550       -3.72485
