28

C          3.67642        1.57141        3.75419
C          4.51785        0.63487        2.88360
C          3.71621       -0.00035        1.74188
C          4.53586       -0.90920        0.81577
Ga         5.43028       -2.55992        1.57935
S          3.60242       -3.43664        3.04398
O          3.46797       -2.70437        4.31016
O          2.35381       -3.79946        2.36597
F          4.20852       -4.95543        3.55798
C          6.94836       -2.36058        2.90015
C          8.04254       -1.43160        2.39716
N          9.18505       -1.35229        3.34636
H          4.27154        2.02776        4.55971
H          2.84699        1.02171        4.22366
H          3.23907        2.38773        3.15665
H          4.94041       -0.16340        3.51315
H          5.37586        1.18840        2.46123
H          3.24475        0.81667        1.15824
H          2.88161       -0.57348        2.18053
H          5.34120       -0.31999        0.33694
H          3.89799       -1.27027       -0.00670
H          5.60644       -3.73414        0.52322
H          7.36668       -3.35770        3.10668
H          6.53682       -1.97847        3.84987
H          7.60777       -0.43388        2.18665
H          8.45096       -1.80310        1.44067
H          8.81167       -1.13749        4.27454
H          9.79338       -0.56665        3.09821
