70

O          5.53068       -2.82925        1.27934
C          4.77576       -2.38974        0.19605
O          3.79428       -3.04296       -0.11272
C          5.25242       -1.14123       -0.43392
Al         5.09772        0.56463        0.70897
C          3.17635        0.97172        1.22565
C          2.85634        1.57401        2.46041
C          1.54881        1.95066        2.79130
C          0.50108        1.74963        1.88571
C          0.78895        1.15608        0.65731
C          2.10140        0.76754        0.34187
C         -0.30413        0.92522       -0.35010
F         -1.51470        1.41413        0.05186
F         -0.02874        1.52139       -1.55067
F         -0.49277       -0.39870       -0.62121
C          1.24232        2.61987        4.10208
F          2.23761        2.48490        5.01727
F          1.03127        3.96859        3.95790
F          0.10419        2.12912        4.68466
C          6.23974        0.34930        2.37609
C          7.52330        0.94116        2.41227
C          8.36112        0.84920        3.52622
C          7.95918        0.15453        4.68674
C          6.68360       -0.44131        4.66890
C          5.85465       -0.34522        3.54405
Si         9.09420        0.07803        6.17917
C          9.42431        1.85754        6.78822
C          8.15367        2.61096        7.20568
C          8.43262        4.05098        7.59929
C          7.19574        4.93604        7.99504
C          6.27164        4.51896        9.20340
C          6.83615        4.40476       10.67882
C          7.51316        5.67174       11.32260
C          7.67464        5.59065       12.88922
F          8.26465        4.43785       13.25851
F          8.45242        6.61697       13.29089
F          6.48852        5.69356       13.51285
F          8.75291        5.83358       10.80358
F          6.77159        6.77883       11.06017
F          5.75624        4.08522       11.45070
F          7.71162        3.36965       10.73384
F          5.25163        5.41709        9.23589
F          5.74151        3.29309        8.93020
F          7.62711        6.20663        8.24552
F          6.36448        4.97870        6.91577
F          9.32997        4.11750        8.64414
F          9.01139        4.73100        6.55090
C          8.31525       -0.93175        7.57570
C         10.77191       -0.66641        5.72221
H          6.15624       -2.11917        1.51929
H          4.73584       -0.99060       -1.39031
H          6.33784       -1.18459       -0.62078
H          5.71856        1.78089       -0.18169
H          3.64749        1.75399        3.19231
H         -0.51682        2.04672        2.13458
H          2.27847        0.29056       -0.62626
H          7.87134        1.50373        1.53935
H          9.34451        1.33185        3.49054
H          6.32642       -0.99158        5.54463
H          4.87428       -0.83061        3.58509
H          9.92389        2.39768        5.96845
H         10.13974        1.82577        7.62541
H          7.67123        2.11553        8.05966
H          7.41971        2.62777        6.38577
H          7.34664       -0.52178        7.89514
H          8.97719       -0.95529        8.45384
H          8.14414       -1.97022        7.25840
H         11.24144       -0.10496        4.90178
H         10.65530       -1.70654        5.38636
H         11.46380       -0.65839        6.57743
