27

C          1.85712        1.62267       -0.55926
C          3.16284        0.83838       -0.68807
C          2.95761       -0.69409       -0.63148
N          2.15560       -1.10367       -1.75755
C          1.06637       -1.78691       -1.71905
C          0.83405       -3.18820       -1.02339
C          0.89912       -3.38224        0.53945
C         -0.05142       -2.57003        1.49274
F         -1.33686       -2.64198        1.11893
F          0.03727       -3.13777        2.73851
F          0.31639       -1.29053        1.62900
F          0.60431       -4.70507        0.78041
F          2.16923       -3.17734        0.99496
F         -0.36697       -3.74111       -1.39094
F          1.81146       -4.05716       -1.49106
F         -0.22530       -1.06563       -1.01058
F          0.53945       -2.00863       -3.00788
C          4.32191       -1.40854       -0.65780
H          2.02335        2.70694       -0.65675
H          1.37661        1.43725        0.41396
H          1.14685        1.29892       -1.33137
H          3.86857        1.13621        0.10903
H          3.64454        1.07198       -1.65366
H          2.48383       -0.90111        0.34690
H          4.83429       -1.18742       -1.60689
H          4.18854       -2.49636       -0.59721
H          4.96816       -1.08655        0.17584
