12

Nb         1.07130       -0.47050       -0.18890
C         -0.17445       -1.54476       -1.59314
N          0.17631       -2.67814       -2.41398
I         -1.19267        1.24464        0.13228
Br         2.95687        1.16596        0.24594
H          0.91343       -1.37725        1.31837
H          1.73187       -2.10877       -0.18360
H          2.13930       -0.92478       -1.50041
H         -1.04914       -1.03218       -2.01522
H         -0.51155       -1.90235       -0.54540
H          1.16235       -2.90284       -2.27587
H          0.03283       -2.46672       -3.39973
