55

N          1.84868       -0.54406       -0.35167
C          2.17203        0.48545        0.69363
C          2.85888        1.69641        0.14083
C          2.05368        2.87166       -0.16119
F          0.70271        2.67063       -0.01574
F          2.31092        4.01974        0.63485
F          2.19817        3.39706       -1.45513
C          4.26973        1.71675       -0.03408
C          5.01556        2.87372       -0.45421
C          6.39376        2.86253       -0.57667
C          7.18863        1.71599       -0.30405
C          6.46355        0.56677        0.09370
C          5.08135        0.55535        0.21619
Si         9.03326        1.75008       -0.46041
C          9.75621        3.20690        0.54793
C         11.28332        3.36162        0.54474
C         11.79205        4.57440        1.33586
C         13.31885        4.69361        1.36235
C         13.83630        5.92375        2.11453
C         15.36458        6.01006        2.16989
C         15.89143        7.24739        2.90323
C         17.41994        7.31138        2.95871
C          9.80019        0.13187        0.17737
C          9.60573        1.97828       -2.26348
H          1.80409       -1.47350        0.08005
H          2.63356       -0.57211       -1.00638
H          2.80664        0.04699        1.49112
H          1.22114        0.76553        1.16989
H          4.48189        3.79873       -0.67026
H          6.87962        3.79321       -0.89344
H          7.00181       -0.36214        0.31173
H          4.59800       -0.37943        0.50827
H          9.39081        3.09883        1.58406
H          9.28681        4.13272        0.16979
H         11.65217        3.44052       -0.49338
H         11.75040        2.45012        0.95850
H         11.41062        4.51790        2.37073
H         11.35788        5.49390        0.90473
H         13.70048        4.71654        0.32580
H         13.74522        3.78273        1.81965
H         13.43437        5.91886        3.14333
H         13.43572        6.83647        1.63866
H         15.76807        5.99951        1.14144
H         15.76239        5.10243        2.65822
H         15.48383        7.26193        3.92839
H         15.50115        8.15393        2.41016
H         17.83483        6.43539        3.48018
H         17.77137        8.21031        3.48522
H         17.85303        7.32654        1.94693
H          9.56031       -0.03343        1.23772
H         10.89543        0.14191        0.07356
H          9.42124       -0.73191       -0.38812
H          9.18190        2.89924       -2.69097
H          9.25258        1.13990       -2.88150
H         10.70180        2.03250       -2.35702
