35

C          0.68523        0.45400       -0.37459
C          2.21351        0.34807       -0.41252
C          2.77340        0.07875       -1.83107
C          4.26524       -0.09219       -1.95450
C          4.86348       -1.33630       -1.67286
C          4.10773       -2.48927       -1.21862
C          4.68948       -3.72782       -0.98055
C          6.06799       -3.97058       -1.14542
C          6.83208       -2.86381       -1.57573
C          6.27869       -1.61591       -1.82229
C          6.69587       -5.29821       -0.81149
C          5.01996        1.05479       -2.56834
C          5.39274        2.23384       -1.62853
C          6.33997        1.83003       -0.49617
H          0.30318        0.63388        0.64272
H          0.21855       -0.47200       -0.74763
H          0.32872        1.27705       -1.01607
H          2.54977       -0.45921        0.25746
H          2.66400        1.27512       -0.02097
H          2.44845        0.92059       -2.47731
H          2.23471       -0.81526       -2.22065
H          3.03088       -2.39300       -1.06391
H          4.04465       -4.55107       -0.64719
H          7.91297       -2.99140       -1.71702
H          6.94856       -0.81596       -2.14401
H          5.95917       -6.11590       -0.87749
H          7.12144       -5.34193        0.21244
H          7.52187       -5.54764       -1.49996
H          4.41630        1.49669       -3.39297
H          5.95382        0.70347       -3.04611
H          4.46473        2.64802       -1.19692
H          5.84683        3.04987       -2.22642
H          5.91695        0.98055        0.05988
H          6.51985        2.65849        0.20703
H          7.31513        1.50727       -0.89345
