40

C          1.13035        0.56175       -0.13145
C          2.64534        0.44673        0.06874
C          3.10220       -0.95859        0.47801
C          4.62200       -1.13093        0.59758
C          5.06518       -2.59197        0.81102
C          6.57565       -2.83244        0.85797
In         7.27966       -4.99658        0.96346
C          5.98904       -6.09889        2.47880
C          4.46799       -6.08247        2.31339
C          3.71282       -6.89287        3.37417
N          2.24442       -6.80677        3.19378
C          9.28788       -4.86045        2.02293
C          9.53383       -5.92467        3.10236
H          0.83119        1.57268       -0.44704
H          0.58468        0.32689        0.79549
H          0.78057       -0.14362       -0.90122
H          2.97543        1.17878        0.82615
H          3.15928        0.73069       -0.86591
H          2.72287       -1.68469       -0.26410
H          2.62166       -1.23528        1.43419
H          5.00788       -0.50388        1.42217
H          5.10379       -0.74802       -0.32071
H          4.60965       -3.19841        0.00575
H          4.60145       -2.96098        1.74400
H          7.00873       -2.32851        1.74161
H          7.05476       -2.36958       -0.02392
H          7.29890       -5.79309       -0.64131
H          6.25562       -5.66565        3.46056
H          6.35073       -7.14295        2.50261
H          4.17137       -6.45603        1.31813
H          4.09821       -5.04075        2.35907
H          4.04865       -6.55435        4.37627
H          3.99845       -7.95529        3.28992
H          1.97057       -5.82102        3.20294
H          1.76482       -7.23761        3.98695
H          9.29976       -3.85686        2.48453
H         10.11157       -4.86650        1.28945
H          8.73538       -5.92512        3.86205
H         10.48981       -5.79784        3.65166
H          9.54836       -6.94164        2.67652
