61

C          0.92901       -0.15547       -0.45569
C          2.45441       -0.14298       -0.31955
C          2.96093        0.76482        0.80698
C          4.48602        0.77683        0.95500
C          4.99223        1.67908        2.08518
C          6.51636        1.67895        2.24647
C          7.01235        2.58888        3.37763
C          8.53606        2.60203        3.56300
Si         9.15288        3.83420        4.89627
C          8.54905        5.54781        4.58288
C          9.33213        6.53324        3.90937
C          8.83924        7.77741        3.57758
C          7.48311        8.18488        3.86948
C          6.69769        7.18087        4.55946
C          7.22070        5.93840        4.88966
N          7.07839        9.39827        3.49884
C          5.71892        9.75233        3.79542
C          5.41138       11.17051        3.29887
C          3.96638       11.61547        3.53776
C          3.66509       13.03871        3.05513
C          2.21209       13.47057        3.27797
C          8.56108        3.16383        6.57726
C         11.05127        3.72852        4.87612
H          0.59847       -0.81248       -1.27331
H          0.53929        0.85307       -0.66124
H          0.44925       -0.50912        0.46981
H          2.90636        0.17826       -1.27367
H          2.81719       -1.17101       -0.14698
H          2.50464        0.44736        1.76189
H          2.60308        1.79508        0.63294
H          4.94129        1.09839        0.00118
H          4.84264       -0.25537        1.12444
H          4.52681        1.36489        3.03679
H          4.64692        2.71307        1.91100
H          6.98456        1.99754        1.29786
H          6.86644        0.64534        2.42341
H          6.52492        2.27842        4.31954
H          6.66494        3.61843        3.18926
H          9.01936        2.89173        2.61267
H          8.90320        1.58539        3.79908
H         10.37063        6.30443        3.64450
H          9.47106        8.51033        3.06864
H          5.66507        7.40451        4.83448
H          6.56245        5.23419        5.41385
H          5.48691        9.71146        4.89067
H          4.97861        9.05407        3.32686
H          5.64762       11.21498        2.22180
H          6.11106       11.86887        3.78977
H          3.73116       11.54304        4.61573
H          3.27855       10.91043        3.03531
H          3.91027       13.11570        1.98199
H          4.34146       13.74454        3.56695
H          1.51464       12.81291        2.73626
H          2.03146       14.50098        2.93555
H          1.94226       13.42265        4.34445
H          7.46564        3.20362        6.66331
H          8.97647        3.76929        7.39549
H          8.87391        2.11846        6.72476
H         11.45803        4.02877        3.89974
H         11.38860        2.70096        5.07954
H         11.48654        4.39115        5.63768
