58

C          4.35609        1.12059       -1.36305
S          3.27948        0.81818        0.06570
C          3.30419       -1.00981        0.12554
C          4.64647       -1.63499        0.48948
In         5.38183       -1.20548        2.53428
S          3.85722       -3.29686        3.47818
O          2.42964       -2.95023        3.28121
O          4.30341       -4.59705        2.93051
C          3.92427       -3.74128        5.42092
C          3.64515       -2.64518        6.48929
C          2.24393       -1.93117        6.45894
C          1.86244       -1.21159        7.80837
F          1.53973       -2.09599        8.77237
F          2.86688       -0.43215        8.25644
F          0.78325       -0.42520        7.59516
F          2.24628       -0.98080        5.49643
F          1.25359       -2.82556        6.20902
F          3.78493       -3.21086        7.74069
F          4.60378       -1.68326        6.36804
F          3.07842       -4.78585        5.62767
F          5.20039       -4.17963        5.68260
C          7.49484       -1.83732        2.80225
C          8.46992       -1.45530        1.86010
C          9.81565       -1.80227        1.99458
C         10.22805       -2.56194        3.09951
C          9.27947       -2.96924        4.04746
C          7.93878       -2.60851        3.89215
C         11.67347       -2.94176        3.24703
C         12.67794       -1.80511        3.68197
C         12.45313       -1.02681        5.03399
C         12.55312       -1.75711        6.43693
C         13.88923       -2.50777        6.79950
C         14.06452       -2.80353        8.33818
F         12.97457       -3.40616        8.84612
F         15.12232       -3.62776        8.49551
F         14.30655       -1.67770        9.03254
F         13.92106       -3.70112        6.15991
F         14.96443       -1.76925        6.41820
F         12.37897       -0.76728        7.36327
F         11.52646       -2.63079        6.55811
F         13.37724       -0.02145        5.05252
F         11.22063       -0.46091        5.00735
F         13.94297       -2.32179        3.72043
F         12.65718       -0.84332        2.71378
F         11.84653       -3.97181        4.14108
F         12.19058       -3.37826        2.03905
H          4.36384        2.20568       -1.52816
H          3.96573        0.62784       -2.26577
H          5.38642        0.78757       -1.17986
H          2.92765       -1.36285       -0.85183
H          2.53569       -1.26093        0.87211
H          5.42753       -1.35217       -0.23356
H          4.56423       -2.73257        0.43808
H          4.84266        0.09107        3.56864
H          8.18210       -0.87117        0.98045
H         10.54100       -1.49714        1.23903
H          9.58592       -3.57649        4.89939
H          7.22729       -2.95534        4.64456
