28

N          3.81999       -2.65520        1.84891
C          2.53692       -2.01426        2.28070
C          2.74227       -0.53286        2.00009
Ta         4.46048       -0.82455        0.46184
C          6.10292        0.26330       -0.58841
C          6.02870        0.46753       -2.11486
C          5.25920        1.74967       -2.45645
C          7.41940        0.49512       -2.77533
S          5.69038       -0.29275        2.63182
H          3.71457       -3.57350        1.42338
H          4.49843       -2.69948        2.61173
H          2.28588       -2.29779        3.32632
H          1.75557       -2.41844        1.62263
H          3.03493        0.02525        2.90414
H          1.85535       -0.05162        1.57098
H          3.50493        0.41052       -0.39491
H          5.02660       -2.29826       -0.44264
H          3.00071       -1.57693       -0.28617
H          6.96861       -0.39642       -0.35293
H          6.32296        1.22993       -0.09684
H          5.47717       -0.37941       -2.56635
H          5.80589        2.63166       -2.08030
H          4.27154        1.73543       -1.97642
H          5.12947        1.87150       -3.54453
H          8.01907        1.32750       -2.36985
H          7.35492        0.62588       -3.87051
H          7.96913       -0.43738       -2.57646
H          6.95604       -0.23276        2.14203
