43

C          0.68552       -0.93242       -1.32668
C          1.91382       -0.46170       -0.53335
C          2.79103       -1.58289       -0.00446
Sb         4.53469       -0.78391        1.20888
C          6.23704        0.10311        2.45200
C          6.23156       -0.36208        3.90026
C          7.15926        0.47998        4.80085
C          7.21674        0.02120        6.24314
C          8.04950        0.93983        7.18928
F          9.32796        1.05580        6.75267
F          7.51624        2.18441        7.24375
F          8.08990        0.45478        8.45205
F          5.96317       -0.05322        6.81069
F          7.77730       -1.23623        6.35017
C          5.71468       -2.76895        1.19104
C          5.32444       -3.89483        0.23194
C          5.74289       -3.64773       -1.22346
C          5.30469       -4.76208       -2.17801
H          0.08542       -0.08513       -1.70036
H          0.02998       -1.55753       -0.69963
H          0.98315       -1.54283       -2.19419
H          1.58178        0.17234        0.30690
H          2.52367        0.20205       -1.17276
H          3.20676       -2.18341       -0.82875
H          2.23473       -2.25188        0.67248
H          5.37971       -0.22810       -0.31169
H          3.67635        0.81487        1.32792
H          3.72780       -1.33892        2.75979
H          6.07533        1.19029        2.37335
H          7.17848       -0.15214        1.94105
H          6.53565       -1.41930        3.95743
H          5.20616       -0.32093        4.30370
H          6.82641        1.52932        4.79521
H          8.18990        0.46585        4.41404
H          5.61409       -3.10337        2.23642
H          6.76729       -2.47636        1.03096
H          4.23242       -4.06129        0.26530
H          5.77336       -4.86029        0.54916
H          6.84097       -3.53864       -1.26181
H          5.33746       -2.68123       -1.56146
H          5.71592       -5.73681       -1.86851
H          5.63527       -4.57386       -3.21109
H          4.20795       -4.86085       -2.19281
