29

S          0.92273        0.07474       -0.17708
C          2.69571       -0.26102        0.17995
C          3.34984       -0.82500       -1.07787
C          4.81808       -1.21724       -0.86534
N          5.35343       -1.74016       -2.08930
C          6.61436       -2.16032       -2.06431
C          7.18819       -2.70413       -3.26842
C          8.49067       -3.17354       -3.32354
C          9.34650       -3.14743       -2.20368
C          8.81445       -2.61883       -1.01721
C          7.51053       -2.13866       -0.92668
C          9.71707       -2.55699        0.17966
F         10.31518       -3.76272        0.45932
F         10.75915       -1.67117        0.01476
F          9.08871       -2.17647        1.32934
C          8.99329       -3.70801       -4.63175
F          8.18680       -4.68601       -5.15869
F          9.07465       -2.74386       -5.60950
F         10.24286       -4.25765       -4.55118
H          0.58772        0.58196        1.03370
H          2.75822       -0.97990        1.00923
H          3.17880        0.67644        0.48996
H          3.29764       -0.09031       -1.89671
H          2.80223       -1.71671       -1.42276
H          4.86497       -1.94997       -0.02045
H          5.37379       -0.31897       -0.49394
H          6.54522       -2.73723       -4.14946
H         10.36429       -3.52338       -2.25684
H          7.16190       -1.74208        0.02480
