23

C          3.82343       -0.76378        0.22988
C          2.67533        0.21996        0.22321
Nb         2.92359        0.39747       -1.96737
C          2.17193        1.73614       -3.56699
C          3.12383        2.29236       -4.63293
C          2.38018        3.17116       -5.64367
S          3.37309        3.75752       -7.08496
Br         4.98035        1.99452       -1.47656
H          3.54897       -1.75202        0.62404
H          4.72864       -0.38855        0.72542
H          4.17901       -1.00643       -0.83342
H          2.86167        1.15721        0.75921
H          1.71147       -0.21352        0.49981
H          1.16370        0.39837       -1.78398
H          3.84582       -0.86593       -2.83112
H          2.11772       -1.19793       -1.92688
H          1.58755        2.54884       -3.09663
H          1.42198        1.06888       -4.04367
H          3.62920        1.47549       -5.17267
H          3.92311        2.88604       -4.15848
H          1.93967        4.04622       -5.14474
H          1.55613        2.61207       -6.11248
H          4.39320        4.27861       -6.36261
