20

I          1.04168       -0.19528        1.01075
Ga         3.26659        0.15468       -0.44311
C          4.26988        1.83331        0.32041
C          5.01467        1.74674        1.66831
F          4.16154        1.49233        2.68670
F          5.94008        0.75002        1.64416
F          5.68765        2.89528        1.99156
F          5.26970        2.17934       -0.60897
F          3.45654        2.95761        0.42082
C          4.35800       -1.52290       -0.26339
C          3.70733       -2.74856       -0.90985
C          4.52490       -4.03940       -0.76247
H          2.78571        0.59362       -1.88685
H          4.53857       -1.70929        0.80773
H          5.34524       -1.32729       -0.71923
H          3.53308       -2.55468       -1.98276
H          2.70774       -2.90208       -0.46945
H          5.51272       -3.93949       -1.24092
H          4.01649       -4.90583       -1.21742
H          4.69876       -4.27135        0.30006
