41

C          7.96385       -1.14479       -0.52901
S          6.70306       -0.59206        0.65278
C          6.11833        0.91026       -0.22071
C          5.04562        1.63465        0.59537
Al         5.61125        2.43132        2.38155
C          4.34578        3.98327        2.89202
C          4.76590        5.31874        2.70560
C          4.00186        6.42766        3.08622
C          2.76184        6.24382        3.70404
C          2.31414        4.94405        3.94095
C          3.09021        3.83876        3.53493
C          2.52827        2.47064        3.78814
O          2.47495        1.56176        2.99291
O          1.99800        2.28931        5.05598
C          7.45577        3.27567        2.16528
C          7.83442        4.08779        1.07588
C          9.10901        4.66002        0.96122
C         10.08569        4.44247        1.94174
C          9.73940        3.62997        3.03314
C          8.46303        3.06749        3.13351
C         11.46449        5.04840        1.82619
H          8.38938       -2.08094       -0.14363
H          8.77119       -0.40427       -0.62561
H          7.52881       -1.33834       -1.52134
H          5.76499        0.57785       -1.21557
H          6.99946        1.55590       -0.37292
H          4.17433        0.97644        0.74811
H          4.67335        2.47244       -0.02356
H          5.66701        1.42089        3.66482
H          5.74391        5.49888        2.24953
H          4.37529        7.43927        2.90411
H          2.14832        7.09893        3.99615
H          1.33624        4.78717        4.40756
H          2.22912        3.08000        5.57536
H          7.11121        4.29070        0.27693
H          9.35228        5.28764        0.09647
H         10.48407        3.43718        3.81387
H          8.23728        2.43549        3.99922
H         11.52119        5.75008        0.98180
H         12.23567        4.27648        1.66902
H         11.74374        5.59679        2.73964
