43

C         10.34113        5.85185       -1.91418
S          9.45594        4.99434       -0.57917
C          8.05891        4.23994       -1.52644
C          7.13132        3.43807       -0.63224
Al         5.56304        2.59790       -1.59890
C          4.35367        4.01077       -2.39982
C          4.53103        4.57704       -3.68047
C          3.70672        5.59547       -4.16676
C          2.64162        6.10790       -3.39571
C          2.44373        5.54355       -2.12028
C          3.27898        4.52643       -1.64528
Si         1.56732        7.48693       -4.06181
C          0.70837        6.89830       -5.66530
C         -0.17798        7.95393       -6.33476
C         -0.84012        7.49197       -7.61537
F         -1.67178        6.42906       -7.42426
F         -1.60336        8.48595       -8.17099
F          0.06045        7.11996       -8.56784
C          0.23150        7.98887       -2.81581
C          2.62033        9.00747       -4.48056
Br         6.46146        1.30524       -3.42609
H         11.21888        6.34107       -1.47070
H          9.70891        6.61875       -2.38484
H         10.68226        5.14400       -2.68379
H          8.49977        3.60371       -2.30939
H          7.52508        5.06760       -2.02096
H          6.72211        4.08038        0.16850
H          7.69079        2.62912       -0.13137
H          4.70631        1.63211       -0.61082
H          5.33404        4.19898       -4.32179
H          3.89786        5.99711       -5.16883
H          1.62607        5.90139       -1.48612
H          3.07898        4.11355       -0.64997
H          0.11365        6.00475       -5.41897
H          1.49023        6.56341       -6.36506
H          0.39764        8.85427       -6.59853
H         -0.99367        8.27632       -5.66960
H         -0.44341        7.15114       -2.58935
H         -0.37892        8.82062       -3.19751
H          0.68239        8.31920       -1.86925
H          3.40226        8.75254       -5.21049
H          3.12506        9.37556       -3.57610
H          2.02444        9.83457       -4.89448
