20

S          0.72150       -0.51414       -0.53129
C          2.47730       -0.02018       -0.18663
C          3.41290       -1.17870       -0.52759
C          4.87386       -0.86582       -0.27664
As         6.08348       -2.35124       -1.10193
F          7.22056       -0.91932       -1.87005
C          7.25920       -3.74618       -2.00843
H          0.13331        0.64140       -0.13846
H          2.55408        0.24877        0.87570
H          2.71644        0.86236       -0.79552
H          3.28426       -1.44522       -1.59497
H          3.11198       -2.06837        0.05237
H          5.12626       -0.82485        0.79455
H          5.20404        0.05583       -0.77542
H          5.19924       -2.22701       -2.43714
H          7.05896       -2.27683        0.15525
H          5.15929       -3.48140       -0.46494
H          7.99840       -3.22236       -2.62546
H          6.60992       -4.37612       -2.63478
H          7.75750       -4.35096       -1.23611
