69

C         -0.37639        7.41406        1.31432
C          1.09223        7.83518        1.40380
C          2.02156        6.97196        0.54499
C          3.49668        7.37180        0.63876
C          4.42099        6.52763       -0.24411
C          5.89975        6.90724       -0.12209
C          6.81922        6.11518       -1.05953
C          8.30412        6.48677       -0.92501
Si         9.46283        5.67976       -2.20146
C          8.90375        6.15560       -3.93075
C          8.64517        7.50182       -4.25268
C          8.20871        7.88593       -5.52265
C          8.01441        6.93911       -6.54385
C          8.26732        5.58747       -6.22698
C          8.69783        5.20983       -4.95723
C          7.48276        7.30241       -7.91399
C          8.32254        6.69225       -9.02857
C          9.71536        6.57669       -8.90763
C         10.50098        6.10357       -9.96683
C          9.91557        5.73465      -11.17967
C          8.52866        5.84778      -11.30717
C          7.73911        6.31492      -10.24974
C          7.85931        5.48505      -12.60521
F          8.70275        4.85725      -13.47836
F          6.79106        4.66113      -12.43426
F          7.38567        6.59055      -13.26417
C         11.99512        6.05131       -9.81794
F         12.39058        5.75153       -8.54989
F         12.57633        5.12856      -10.63991
F         12.58816        7.25221      -10.12421
C          5.94286        6.68231       -7.93316
O          5.88611        5.47114       -8.24833
O          5.05480        7.49326       -7.60821
C          7.41225        8.82027       -8.15903
C         11.21891        6.31142       -1.86233
C          9.44597        3.79738       -1.99129
H         -1.02077        8.05134        1.93695
H         -0.51204        6.37437        1.64857
H         -0.74444        7.47720        0.27944
H          1.42550        7.79247        2.45506
H          1.19335        8.89012        1.09730
H          1.69561        7.02573       -0.50843
H          1.91079        5.91360        0.84119
H          3.82705        7.29944        1.69073
H          3.60355        8.43529        0.36074
H          4.10688        6.62547       -1.29742
H          4.29586        5.46024        0.01099
H          6.23039        6.76767        0.92318
H          6.01769        7.98450       -0.33592
H          6.49261        6.27725       -2.10018
H          6.68648        5.03615       -0.86720
H          8.66781        6.24525        0.08995
H          8.41772        7.58117       -1.02754
H          8.77871        8.28053       -3.49467
H          8.00987        8.94022       -5.71675
H          8.07627        4.83109       -6.98995
H          8.86581        4.14746       -4.76040
H         10.19383        6.85028       -7.96673
H         10.52202        5.35872      -12.00123
H          6.65605        6.36227      -10.35531
H          8.38719        9.31272       -8.00900
H          6.65661        9.25677       -7.49381
H          7.08563        9.01552       -9.18900
H         11.27405        7.40187       -1.99262
H         11.93825        5.85892       -2.55985
H         11.54196        6.07523       -0.83712
H          8.44464        3.37867       -2.16478
H          9.75746        3.51933       -0.97347
H         10.13642        3.31077       -2.69526
