24

C          1.18570       -0.46227        0.92916
C          2.61333       -0.33713        0.38971
C          3.53725        0.47795        1.29816
C          4.96467        0.60765        0.74619
N          5.78158        1.50724        1.55247
S          7.11894        0.99099        2.13237
O          7.73642       -0.17202        1.47378
O          7.99569        2.09118        2.52843
C          6.68740        0.24652        3.85295
C          7.83771       -0.34111        4.71866
F          8.45819       -1.37094        4.10936
F          8.76040        0.59003        5.03141
F          7.34476       -0.82499        5.90762
F          6.07413        1.19793        4.62885
F          5.77955       -0.78076        3.68343
H          0.54112       -1.05083        0.25804
H          0.72250        0.52884        1.05356
H          1.17782       -0.95167        1.91494
H          2.58780        0.12442       -0.61319
H          3.03974       -1.34500        0.24646
H          3.58138        0.01827        2.29900
H          3.12403        1.49132        1.44073
H          4.89396        1.02217       -0.28098
H          5.41419       -0.39792        0.63923
