40

N          1.92482       -1.23746        0.98803
C          2.48806       -0.05534        0.28583
Ga         3.05298       -0.41329       -1.65796
C          1.80295       -1.73877       -2.58864
C          0.36006       -1.22584       -2.60825
C         -0.62866       -2.04906       -3.44948
C         -2.06650       -1.51924       -3.41266
C         -3.03944       -2.30898       -4.29262
C          5.03669       -0.98595       -1.72655
C          5.52250       -1.86577       -0.57565
C          7.04989       -2.09577       -0.60883
C          7.59517       -2.90780        0.54442
C          9.13797       -3.13137        0.52013
F          9.51412       -3.78809       -0.60475
F          9.79807       -1.94809        0.54895
F          9.55871       -3.86109        1.58029
F          7.32561       -2.31058        1.75936
F          7.03556       -4.16936        0.59012
H          1.97722       -1.13614        2.00553
H          2.46484       -2.07301        0.76130
H          3.35548        0.38786        0.82073
H          1.71392        0.73084        0.26308
H          2.95898        0.99282       -2.47143
H          1.83676       -2.73982       -2.12115
H          2.17000       -1.86674       -3.62431
H          0.34740       -0.18513       -2.98379
H         -0.01586       -1.17098       -1.57077
H         -0.61757       -3.09887       -3.10250
H         -0.27591       -2.07409       -4.49757
H         -2.06737       -0.45990       -3.72366
H         -2.42438       -1.52501       -2.36862
H         -2.73008       -2.27800       -5.34922
H         -4.06550       -1.91369       -4.23385
H         -3.07239       -3.36858       -3.99401
H          5.61891       -0.04657       -1.73663
H          5.23965       -1.48267       -2.69301
H          5.01733       -2.84530       -0.59913
H          5.25915       -1.40384        0.38969
H          7.56707       -1.12362       -0.60352
H          7.33358       -2.60624       -1.54219
