12

Br         1.42012        0.80486       -0.68148
N          3.18584        0.24033       -0.17485
C          3.40622       -1.06647       -0.40469
C          2.89454       -2.25256        0.54679
C          1.36419       -2.51910        0.72509
F          0.72201       -2.67603       -0.44853
F          1.18789       -3.67910        1.43275
F          0.75584       -1.54543        1.42830
F          3.42559       -3.46396        0.14969
F          3.36823       -2.01773        1.81661
F          3.07811       -1.60689       -1.72753
F          4.80332       -1.24672       -0.28735
