57

C          9.13388       -5.62747       -1.95389
C          8.59449       -4.28222       -1.46146
C          9.07302       -3.91836       -0.05208
C          8.55356       -2.56811        0.45214
C          9.03890       -2.21594        1.86219
C          8.56027       -0.85139        2.36965
C          9.06657       -0.51986        3.78013
C          8.64194        0.86391        4.29876
Si         9.25408        1.29304        6.05232
C          8.86226        3.08477        6.48071
C          8.30037        3.44797        7.71972
C          8.10459        4.78878        8.07217
C          8.45503        5.83545        7.19973
C          8.99526        5.47206        5.95113
C          9.19767        4.13321        5.60058
In         8.25423        7.95690        7.75848
S          6.72528        7.66759       10.03788
O          5.30279        7.79971        9.64746
O          7.00624        6.66220       11.06399
F          6.99870        9.13780       10.85346
C          6.64202        9.21689        6.85161
C          5.59469        8.43080        6.14504
O          5.52150        8.31529        4.92902
O          4.67660        7.79456        6.92754
C          8.44210        0.12010        7.29752
C         11.13377        1.04304        6.12355
H          8.77481       -5.86401       -2.96559
H          8.82261       -6.44763       -1.28930
H         10.23410       -5.62747       -1.98212
H          7.49157       -4.29861       -1.47687
H          8.89483       -3.48543       -2.16284
H         10.17759       -3.91156       -0.03570
H          8.76672       -4.71340        0.65104
H          7.44944       -2.57138        0.43504
H          8.86435       -1.77397       -0.24948
H         10.14323       -2.23984        1.87993
H          8.71006       -3.00194        2.56529
H          7.45675       -0.81849        2.36051
H          8.89251       -0.06331        1.67121
H         10.16801       -0.59378        3.78208
H          8.71426       -1.30471        4.47271
H          7.54146        0.94931        4.29501
H          8.99962        1.64532        3.60595
H          8.01028        2.67327        8.43574
H          7.67594        5.00835        9.05374
H          9.26884        6.24199        5.22325
H          9.62863        3.90824        4.61916
H          9.67985        8.83971        8.26478
H          7.12218        9.90817        6.15090
H          6.24487        9.76642        7.71552
H          4.89957        7.89035        7.88964
H          7.34904        0.23724        7.30503
H          8.80577        0.30380        8.31841
H          8.66771       -0.92789        7.05090
H         11.64471        1.70137        5.40595
H         11.42319        0.00548        5.90054
H         11.51121        1.29304        7.12534
