11

C          0.94146       -0.05642        0.05643
C          2.46627       -0.02511        0.09627
S          3.12134        1.07346        1.41059
O          2.58461        2.41169        1.07901
O          2.58867        0.50760        2.66938
O          4.58774        0.95968        1.27041
H          0.56977       -0.72195       -0.73999
H          0.54416        0.95307       -0.11965
H          0.54255       -0.40834        1.01825
H          2.89340        0.35024       -0.84524
H          2.89253       -1.01862        0.29843
