52

C          1.87178       -0.03078        1.39837
C          2.88633        0.09371        0.31232
C          3.05826        1.18799       -0.52119
C          2.28942        2.41864       -0.41684
C          2.53280        3.51707       -1.20939
C          3.53979        3.54379       -2.22845
C          4.26386        2.32320       -2.37890
C          4.04326        1.20865       -1.59734
Si         3.93558        5.03793       -3.21092
C          5.62416        5.79619       -2.67138
C          6.00671        7.12400       -3.34356
C          7.41925        7.58049       -3.01590
C          7.92618        8.89521       -3.70329
C          7.19156       10.26316       -3.45515
C          7.10104       10.90267       -2.02295
C          8.43506       11.23278       -1.26395
C          8.27951       12.23641       -0.06243
F          7.28926       11.85879        0.76751
F          9.43671       12.26190        0.63961
F          8.03495       13.48972       -0.49157
F          8.95475       10.08503       -0.74628
F          9.34201       11.78261       -2.11642
F          6.43227       12.10630       -2.19740
F          6.32524       10.12295       -1.23157
F          7.79767       11.17708       -4.26796
F          5.89081       10.12822       -3.88140
F          9.24834        9.09406       -3.39433
F          7.86323        8.69200       -5.06194
F          7.59529        7.73645       -1.65862
F          8.33311        6.62490       -3.41829
C          4.11675        4.67463       -5.07341
C          2.61794        6.39213       -2.99554
N          3.66462       -1.10610        0.14738
H          1.26502        0.87498        1.50959
H          2.34523       -0.23013        2.38631
H          1.17716       -0.87874        1.22430
H          1.49276        2.48802        0.32739
H          1.91254        4.40570       -1.04885
H          5.02606        2.24608       -3.16397
H          4.61352        0.30539       -1.83056
H          6.39195        5.03252       -2.87327
H          5.59680        5.92110       -1.57845
H          5.31566        7.92166       -3.03851
H          5.94650        7.05056       -4.43999
H          4.84127        3.86399       -5.24217
H          4.45178        5.54969       -5.65280
H          3.15404        4.34374       -5.48872
H          2.54196        6.71385       -1.94630
H          1.62897        6.02085       -3.30097
H          2.84363        7.28124       -3.60393
H          3.89990       -1.50216        1.06356
H          4.54933       -0.90512       -0.32309
