40

C          1.20252        0.51039        0.45304
C          2.67851        0.27194        0.11772
C          2.88822       -0.82033       -0.94477
C          4.33934       -1.09991       -1.28250
Sb         4.59980       -2.88010       -2.64592
S          4.45812       -0.96820       -4.80241
O          4.68737        0.43833       -4.34063
O          5.27417       -1.39767       -5.98035
C          2.72959       -0.94023       -5.44411
C          6.81028       -2.36949       -2.77133
C          7.53967       -3.16511       -3.84030
C          9.05864       -2.90649       -3.80634
C          9.90526       -3.60083       -4.85548
C          9.90149       -5.16428       -4.84898
F          8.71591       -5.66537       -5.24585
F         10.85303       -5.65547       -5.67913
F         10.16301       -5.63439       -3.60254
F          9.55882       -3.22006       -6.12788
F         11.23624       -3.24074       -4.68510
H          1.07519        1.28020        1.22935
H          0.72556       -0.41282        0.81766
H          0.64192        0.83792       -0.43582
H          3.22542       -0.00831        1.03491
H          3.13828        1.21097       -0.23326
H          2.35339       -0.52505       -1.86503
H          2.38950       -1.74606       -0.59915
H          4.93707       -1.34916       -0.39022
H          4.80750       -0.25846       -1.81140
H          4.74925       -4.06456       -1.34974
H          2.81664       -3.04098       -2.77987
H          4.80584       -4.07356       -3.94822
H          2.06497       -0.58800       -4.64589
H          2.45480       -1.95324       -5.76237
H          2.72761       -0.24611       -6.29525
H          7.21133       -2.55683       -1.76094
H          6.84853       -1.28816       -2.96846
H          7.14241       -2.89561       -4.83113
H          7.34212       -4.24103       -3.70432
H          9.47600       -3.17804       -2.82436
H          9.25695       -1.83260       -3.95193
