39

C          1.66819        1.93383        1.54314
C          2.85358        1.24497        0.86138
C          3.45302        0.10200        1.68673
C          4.65136       -0.58512        1.02401
C          5.25961       -1.72221        1.85876
C          6.48624       -2.40122        1.23302
Al         7.35077       -3.82699        2.35578
S          6.02521       -5.85428        2.13055
O          5.33100       -5.95975        0.81599
O          6.82117       -7.04314        2.55078
C          4.66337       -5.77975        3.35718
C          9.18045       -4.45098        1.78259
C         10.31983       -3.57952        2.32561
C         11.76854       -3.98371        2.03471
O         12.73655       -3.30031        2.38132
N         11.92083       -5.16240        1.36294
H          1.25986        2.75006        0.92886
H          1.96366        2.36151        2.51349
H          0.85241        1.22010        1.73509
H          3.64074        1.98949        0.65142
H          2.53835        0.85470       -0.12140
H          2.66817       -0.64896        1.88939
H          3.75843        0.49086        2.67509
H          5.43539        0.16662        0.81927
H          4.34992       -0.98334        0.03873
H          4.47179       -2.47535        2.04296
H          5.52209       -1.32441        2.85605
H          7.25297       -1.63156        1.01528
H          6.21399       -2.83508        0.25420
H          7.25899       -3.54391        3.96114
H          4.01419       -4.92663        3.12343
H          5.09570       -5.68198        4.36001
H          4.11664       -6.72649        3.25150
H          9.22176       -4.50350        0.68052
H          9.26049       -5.48535        2.16186
H         10.26036       -3.50084        3.42513
H         10.24016       -2.53784        1.97091
H         11.10541       -5.71512        1.12232
H         12.85420       -5.50559        1.17767
