40

S          2.71682        1.19249       -1.52979
C          4.07776        0.13269       -0.89170
C          4.18612        0.29877        0.62201
C          5.36942       -0.50866        1.21336
C          5.53920       -0.41102        2.70745
C          4.82941       -1.26949        3.55760
C          3.84047       -2.20764        3.05699
C          3.17694       -3.10358        3.88274
C          3.39062       -3.15899        5.27285
C          4.32267       -2.23492        5.79129
C          5.00739       -1.33151        4.99436
C          4.54960       -2.24570        7.27251
F          4.89756       -3.49032        7.74536
F          5.53289       -1.39876        7.69583
F          3.42433       -1.89738        7.98454
C          2.15598       -4.03538        3.30100
F          2.13317       -4.05827        1.93616
F          2.34335       -5.33892        3.69598
F          0.87191       -3.72651        3.68922
C          6.65007        0.48314        3.18383
C          6.59387        1.95279        2.72480
S          5.11986        2.81262        3.38401
C          5.46369        4.47068        2.72975
H          2.80397        0.83059       -2.83302
H          5.01630        0.43079       -1.38197
H          3.86343       -0.91339       -1.15248
H          3.24985       -0.02754        1.10047
H          4.30574        1.36203        0.88112
H          6.29602       -0.16050        0.71415
H          5.24870       -1.56524        0.89766
H          3.60364       -2.22058        1.99516
H          2.86189       -3.86419        5.90923
H          5.70470       -0.65190        5.48032
H          7.64012        0.11674        2.81650
H          6.72792        0.47715        4.28014
H          6.56335        2.01639        1.62431
H          7.49284        2.49372        3.06868
H          4.63995        5.12312        3.04771
H          5.49887        4.46364        1.63037
H          6.40830        4.87753        3.11981
