29

C          1.03574        0.18526        0.02880
C          2.55946        0.06640       -0.07901
C          3.02642       -1.18237       -0.83410
C          4.55098       -1.31020       -0.90096
C          5.05121       -2.49772       -1.73631
C          4.54621       -2.35711       -3.22693
O          5.03912       -1.38522       -3.86747
O          3.70521       -3.21546       -3.60702
C          6.58246       -2.55278       -1.68497
C          7.20215       -3.69900       -2.49513
C          8.72565       -3.64668       -2.42699
S          9.62642       -4.87227       -3.45836
H          0.73081        1.09947        0.56138
H          0.60746       -0.67369        0.56883
H          0.56989        0.20737       -0.96800
H          2.99994        0.07165        0.93459
H          2.96221        0.96049       -0.58573
H          2.62468       -1.16742       -1.86025
H          2.59895       -2.08363       -0.35827
H          4.95765       -1.37506        0.12870
H          4.96821       -0.39318       -1.35362
H          4.62998       -3.43603       -1.33228
H          6.92286       -2.61766       -0.63195
H          6.95563       -1.59737       -2.09315
H          6.86975       -3.62669       -3.54098
H          6.84406       -4.67196       -2.11503
H          9.08580       -3.73515       -1.39126
H          9.08829       -2.68180       -2.81410
H          9.06278       -5.98098       -2.92194
