57

N          1.10824        0.99161        0.09650
C          2.49986        1.15937        0.56306
C          3.05199       -0.13672        1.15349
C          4.51550       -0.03862        1.59929
B          5.09426       -1.35993        2.38645
C          4.25038       -1.59008        3.78273
C          4.59670       -0.68321        4.81424
C          3.98080       -0.65761        6.06198
C          2.95730       -1.56922        6.34860
C          2.57783       -2.47374        5.36656
C          3.20018       -2.49618        4.09999
C          2.63450       -3.55114        3.17424
O          1.67806       -4.25201        3.48384
O          3.21659       -3.71887        1.97616
C          6.68358       -1.28685        2.73519
C          7.30862       -2.34480        3.43284
C          8.65831       -2.32314        3.77275
C          9.48256       -1.22881        3.42836
C          8.87706       -0.17534        2.72048
C          7.51929       -0.21015        2.38419
Si        11.22881       -1.13661        4.08033
C         11.11969       -0.89088        5.97070
C         10.15270        0.23423        6.35874
C         10.05644        0.48060        7.84757
F          9.63343       -0.61457        8.53929
F         11.25770        0.84477        8.39771
F          9.18224        1.48917        8.13892
C         12.19564       -2.73066        3.76496
C         12.18124        0.32359        3.34303
H          0.69265        1.89978       -0.11785
H          0.54809        0.59323        0.85347
H          2.61357        1.96391        1.31926
H          3.11134        1.45784       -0.30651
H          2.93108       -0.94557        0.41355
H          2.42100       -0.42180        2.01588
H          4.62341        0.85489        2.24672
H          5.13802        0.16422        0.70687
H          5.05178       -2.31314        1.58077
H          5.40139        0.03022        4.61818
H          4.30200        0.06760        6.81422
H          2.46498       -1.57191        7.32334
H          1.78209       -3.19841        5.54283
H          3.98679       -3.07189        1.87738
H          6.70120       -3.20511        3.72967
H          9.07745       -3.16940        4.32799
H          9.46907        0.69860        2.43072
H          7.09517        0.63798        1.84032
H         12.12635       -0.69532        6.37404
H         10.77802       -1.83970        6.41403
H          9.13558        0.01312        6.00198
H         10.44421        1.19540        5.90806
H         11.65827       -3.60247        4.16371
H         13.18792       -2.69743        4.23833
H         12.33401       -2.88972        2.68636
H         11.69636        1.28482        3.56406
H         12.25481        0.23271        2.25019
H         13.20166        0.35963        3.75143
