52

C          4.09221        2.81430        0.20289
C          3.69906        1.77370       -0.85018
C          4.90182        1.05755       -1.47100
C          4.53863        0.03748       -2.55615
C          5.76179       -0.63723       -3.17303
Nb         7.33493       -1.75676       -2.11628
C          8.76408       -0.33468       -1.15842
C          8.51613        0.41262        0.01602
C          9.41995        1.36069        0.50363
C         10.64257        1.58641       -0.14643
C         10.92249        0.85597       -1.29891
C          9.99233       -0.07322       -1.80082
C         12.23622        1.03782       -2.00491
F         12.92021        2.14559       -1.59012
F         13.08181       -0.02388       -1.81343
F         12.08971        1.15842       -3.35783
C          9.09952        2.18016        1.72144
F          8.11254        1.64438        2.48669
F         10.18463        2.34568        2.54291
F          8.68747        3.45024        1.39772
C          8.39743       -2.81707       -3.74356
C          9.60256       -3.68180       -3.37044
C         10.38817       -4.26218       -4.55933
C         11.58695       -5.10472       -4.13013
N         12.29402       -5.66777       -5.29784
H          3.21129        3.30022        0.64886
H          4.72372        3.60195       -0.23615
H          4.66953        2.35380        1.01885
H          3.11217        2.26058       -1.64922
H          3.02899        1.02351       -0.39552
H          5.46328        0.53804       -0.67520
H          5.59454        1.80867       -1.89292
H          3.91857        0.55157       -3.32062
H          3.89934       -0.74153       -2.10767
H          6.35856        0.10983       -3.75177
H          5.44394       -1.40587       -3.90883
H          7.24116       -3.46555       -1.70200
H          7.45067       -2.17800       -0.40503
H          5.80895       -2.25578       -1.39163
H          7.59853        0.22797        0.57811
H         11.35792        2.30864        0.24367
H         10.25260       -0.60402       -2.72243
H          8.72109       -1.98924       -4.41991
H          7.66296       -3.41395       -4.31593
H          9.25557       -4.50689       -2.72636
H         10.30890       -3.10174       -2.74717
H         10.73601       -3.45035       -5.21946
H          9.70546       -4.88454       -5.16796
H         11.24058       -5.87787       -3.41437
H         12.30194       -4.46839       -3.58302
H         11.65000       -6.26186       -5.82491
H         13.05226       -6.27861       -4.98849
