53

C          5.40570        0.29030       -7.25748
O          6.63688        0.37827       -6.57387
C          7.43616       -0.78709       -6.76397
C          8.65988       -0.74711       -5.87049
O          8.29699       -1.05938       -4.54878
C          9.43929       -1.20524       -3.68994
C          9.03078       -1.74617       -2.32888
B          8.28807       -3.22426       -2.33213
C          8.14340       -3.73687       -0.79235
F          7.38553       -2.89017        0.00824
F          7.53665       -4.97547       -0.64481
F          9.34309       -3.87095       -0.07689
C          9.08932       -4.29075       -3.25977
C         10.32994       -4.87588       -2.91675
C         11.01699       -5.73180       -3.78025
C         10.50946       -6.05415       -5.05698
C          9.27251       -5.47895       -5.41207
C          8.59085       -4.63108       -4.53551
Si        11.43270       -7.21131       -6.19173
C         11.39621       -8.97667       -5.45479
C         12.12425      -10.03604       -6.28754
C         12.10241      -11.42496       -5.68702
F         10.83854      -11.90517       -5.51517
F         12.75361      -12.32911       -6.48712
F         12.71341      -11.47997       -4.46953
C         10.64597       -7.26367       -7.91600
C         13.24878       -6.69172       -6.37123
H          4.84754        1.21286       -7.04896
H          4.80824       -0.57611       -6.91359
H          5.54743        0.19769       -8.35414
H          7.75448       -0.85246       -7.82585
H          6.84983       -1.69470       -6.52320
H          9.13802        0.25498       -5.93895
H          9.39243       -1.48812       -6.25770
H          9.94379       -0.21627       -3.60943
H         10.15684       -1.89917       -4.17554
H          8.39058       -1.00241       -1.82420
H          9.96351       -1.79623       -1.73504
H          7.13418       -3.13210       -2.74132
H         10.76656       -4.65638       -1.93909
H         11.97296       -6.15533       -3.45062
H          8.83070       -5.69722       -6.38983
H          7.63073       -4.20501       -4.84004
H         10.34069       -9.25941       -5.31901
H         11.83123       -8.92440       -4.44413
H         13.18598       -9.78143       -6.42643
H         11.68235      -10.13135       -7.29114
H          9.60780       -7.62312       -7.87590
H         11.20580       -7.92469       -8.59412
H         10.63356       -6.26081       -8.36613
H         13.74503       -6.64694       -5.39106
H         13.31145       -5.68842       -6.81624
H         13.82168       -7.37987       -7.01090
