68

C          2.57537        3.99618       -4.92246
C          3.69314        3.76752       -3.90214
C          3.20666        3.28944       -2.54292
Nb         2.15058        1.48098       -1.94829
S          2.80395       -0.84091       -1.25267
O          1.46659       -1.25430       -0.72248
O          3.47574       -1.79989       -2.16168
C          3.90028       -0.88716        0.22592
C          0.09455        1.74405       -2.67164
C         -0.48017        1.83694       -3.95520
C         -1.83369        2.12805       -4.13885
C         -2.70007        2.32108       -3.04062
C         -2.13944        2.21343       -1.75173
C         -0.77775        1.94162       -1.57781
Si        -4.53501        2.64198       -3.24913
C         -5.51543        1.15913       -2.55087
C         -5.09102       -0.18706       -3.15380
C         -5.87728       -1.35656       -2.58839
C         -5.61644       -2.76620       -3.23297
C         -4.16080       -3.36774       -3.27790
C         -3.34590       -3.66480       -1.95218
C         -3.97370       -4.66014       -0.90682
C         -2.95855       -5.19467        0.17339
F         -2.31771       -4.18600        0.77891
F         -3.66346       -5.87972        1.10524
F         -2.06161       -6.03321       -0.36910
F         -4.97711       -4.03868       -0.23929
F         -4.48066       -5.74854       -1.54752
F         -2.16900       -4.20180       -2.37192
F         -3.09161       -2.48874       -1.33262
F         -4.25401       -4.53648       -3.97218
F         -3.38209       -2.51587       -3.99939
F         -6.42184       -3.68363       -2.62560
F         -6.00103       -2.68047       -4.54494
F         -5.68763       -1.47773       -1.23388
F         -7.23430       -1.15549       -2.77003
C         -5.08302        4.17370       -2.28205
C         -4.98878        2.87092       -5.07275
C          4.33181        3.00361       -1.54422
H          2.97019        4.39438       -5.86988
H          1.82911        4.71153       -4.54335
H          2.04595        3.05880       -5.14113
H          4.27779        4.70663       -3.79993
H          4.39576        3.01362       -4.29584
H          2.50163        4.04156       -2.11133
H          2.24482        1.39450       -0.15324
H          1.77755        0.14008       -2.99752
H          3.47752        0.96658       -2.96009
H          3.45658       -0.27815        1.02024
H          4.89036       -0.51084       -0.06160
H          3.96558       -1.94499        0.51314
H          0.14165        1.66382       -4.83827
H         -2.22682        2.19612       -5.15825
H         -2.77115        2.34083       -0.86523
H         -0.39409        1.85839       -0.55213
H         -6.59068        1.33261       -2.71566
H         -5.36311        1.13839       -1.46002
H         -4.02317       -0.36740       -2.96621
H         -5.23117       -0.19974       -4.24510
H         -4.80860        4.09071       -1.22086
H         -6.17210        4.31793       -2.34021
H         -4.59701        5.07575       -2.68007
H         -4.73443        1.99013       -5.67938
H         -4.45917        3.73210       -5.50445
H         -6.06846        3.05160       -5.18091
H          5.23885        2.67610       -2.06763
H          4.07723        2.18195       -0.82105
H          4.57925        3.85893       -0.89215
