34

F          1.72530        0.93935        3.29753
C          1.72985        0.78354        1.94667
C          2.62002       -0.42274        1.54798
Ta         2.45115       -2.41300        2.62467
S          4.17681       -3.97379        3.35990
O          5.49111       -3.54033        3.85372
O          3.27749       -4.71951        4.28160
C          4.69375       -5.43837        2.17025
C          5.58224       -5.11188        0.93607
F          4.92469       -4.35333        0.03945
F          6.71601       -4.47975        1.28969
F          5.93983       -6.26983        0.30491
F          5.40298       -6.29909        2.95749
F          3.59400       -6.09743        1.71658
C          0.32430       -2.97854        2.75552
C         -0.71004       -2.98534        1.60491
C         -1.02642       -4.40895        1.02010
C         -1.77920       -4.40874       -0.36236
F         -2.89373       -3.65064       -0.31797
F         -0.99303       -3.96402       -1.35697
F         -2.14748       -5.67744       -0.65514
F          0.11975       -5.10918        0.84329
F         -1.82285       -5.08053        1.89711
F         -1.90355       -2.43883        1.99632
F         -0.21264       -2.20442        0.59358
F         -0.06407       -3.88714        3.69803
F          0.17907       -1.67429        3.38814
F          2.56160       -0.45695        0.16270
F          3.91804       -0.01802        1.89742
F          0.44901        0.59840        1.54589
F          2.14963        1.95988        1.40877
H          2.39955       -3.93304        1.79142
H          3.11765       -2.12158        4.23672
H          3.55998       -2.51298        1.28977
