15

C          1.04351       -0.08455       -0.01260
C          2.57492       -0.04992        0.01102
C          3.14945        1.22966        0.62715
C          4.68748        1.27237        0.64465
N          5.07235        2.50988        1.24776
Cl         6.88551        2.51872        1.24614
H          0.65643       -1.01392       -0.46081
H          0.63735        0.75999       -0.59167
H          0.63019       -0.00778        1.00571
H          2.95893       -0.16087       -1.01773
H          2.95220       -0.92320        0.57053
H          2.78471        1.34360        1.66339
H          2.78154        2.11095        0.07241
H          5.03918        1.12262       -0.42088
H          5.04288        0.34099        1.18112
