58

C          0.79287        0.19333        0.20871
C          2.32149        0.10780        0.18516
C          2.85897       -1.06076       -0.64893
C          4.38734       -1.16368       -0.64798
C          4.94078       -2.32001       -1.48752
C          6.47021       -2.40737       -1.46965
C          7.04608       -3.56602       -2.29329
C          8.57981       -3.62562       -2.28170
Si         9.35157       -5.14506       -3.14443
C          8.83572       -6.71454       -2.32395
C          8.47133       -6.77384       -0.94472
C          8.14859       -7.95365       -0.30857
C          8.16572       -9.23362       -0.97972
C          8.53585       -9.16392       -2.37893
C          8.84834       -7.96143       -2.99754
N          7.85626      -10.32897       -0.28898
C          7.91185      -11.58580       -0.97844
C          7.50065      -12.74121       -0.04403
C          6.04638      -12.57828        0.40966
C          7.74360      -14.10841       -0.69256
C          8.84716       -5.10211       -4.97982
C         11.23637       -4.85794       -3.10535
H          0.44270        1.04817        0.80530
H          0.34969       -0.71702        0.63988
H          0.38392        0.30710       -0.80689
H          2.70075        0.01941        1.21761
H          2.73720        1.05225       -0.20673
H          2.49805       -0.96212       -1.68847
H          2.42946       -2.00560       -0.27110
H          4.74216       -1.27046        0.39263
H          4.81535       -0.21264       -1.01371
H          4.59181       -2.21486       -2.53053
H          4.51788       -3.27287       -1.12372
H          6.81592       -2.50767       -0.42514
H          6.89387       -1.45381       -1.83539
H          6.68579       -3.48147       -3.33390
H          6.63924       -4.51837       -1.91394
H          8.94232       -3.61732       -1.23804
H          8.99910       -2.71534       -2.74781
H          8.44152       -5.84943       -0.35581
H          7.86927       -7.95855        0.74854
H          8.56791      -10.08172       -2.96918
H          9.11725       -7.99280       -4.06089
H          8.93283      -11.81437       -1.37614
H          7.24231      -11.62527       -1.87794
H          8.14393      -12.65474        0.85023
H          5.35841      -12.68897       -0.44634
H          5.90975      -11.57028        0.82436
H          5.76345      -13.32561        1.16875
H          7.13983      -14.22433       -1.60830
H          7.47445      -14.93367       -0.01401
H          8.80012      -14.23430       -0.97632
H          7.76182       -5.23201       -5.09312
H          9.33658       -5.91146       -5.54121
H          9.13541       -4.14803       -5.44742
H         11.59646       -4.82288       -2.06665
H         11.52907       -3.92072       -3.60542
H         11.75509       -5.69034       -3.60381
