72

F          1.40754       -0.26066        0.36219
C          2.25934       -0.28580       -0.77242
C          3.39023        0.73668       -0.42672
C          4.38713        0.44250        0.75080
F          3.75228        0.07705        1.88156
F          5.29843       -0.49460        0.43683
F          5.07946        1.58453        1.02617
F          4.16559        0.94738       -1.53225
F          2.81420        1.95019       -0.10257
Ta         2.22413       -2.55840       -1.00319
C          4.01275       -2.22517       -2.22237
C          5.28536       -2.74131       -1.90153
C          6.38572       -2.57692       -2.74017
C          6.25018       -1.86169       -3.94203
C          4.99629       -1.33434       -4.28743
C          3.90525       -1.52391       -3.44147
C          7.44236       -1.64198       -4.82116
C          7.92388       -2.85249       -5.71065
C          6.94554       -3.49622       -6.76506
C          6.41662       -2.67721       -8.01459
C          7.46727       -2.03952       -8.99883
C          6.87033       -1.64305      -10.40377
F          5.74780       -0.91282      -10.27100
F          7.78576       -0.90156      -11.06403
F          6.59938       -2.72985      -11.14814
F          7.97270       -0.91066       -8.44894
F          8.48183       -2.91132       -9.23854
F          5.67818       -3.57288       -8.73808
F          5.58452       -1.69808       -7.58871
F          7.59285       -4.58990       -7.26739
F          5.83393       -3.92914       -6.12019
F          9.05554       -2.48922       -6.38920
F          8.26034       -3.87404       -4.87083
F          7.25840       -0.58427       -5.68450
F          8.56483       -1.34203       -4.06604
C          1.96035       -3.85033        0.72050
C          0.59142       -4.15344        0.88836
C          0.12665       -4.92060        1.95994
C          1.04120       -5.41897        2.89695
C          2.41249       -5.15192        2.74466
C          2.85307       -4.37297        1.67693
C          0.53647       -6.19483        4.08245
C          0.20696       -7.72188        3.86123
C          1.35743       -8.73132        3.48386
C          2.53158       -9.07397        4.49566
C          2.15631       -9.59871        5.93180
C          3.34495      -10.29431        6.69933
F          4.43941       -9.51186        6.71533
F          2.95682      -10.51300        7.97341
F          3.66203      -11.47940        6.14962
F          1.74756       -8.55917        6.69750
F          1.15555      -10.51406        5.84884
F          3.25308      -10.05694        3.87849
F          3.33484       -7.99193        4.63192
F          0.74319       -9.91405        3.19223
F          1.97009       -8.28702        2.35664
F         -0.40091       -8.21259        4.98237
F         -0.69193       -7.80075        2.83845
F          1.41023       -6.13247        5.14373
F         -0.66117       -5.66924        4.52604
F          1.56919        0.40103       -1.78296
H          2.33718       -3.87917       -2.23859
H          3.40668       -2.01730        0.17902
H          0.61848       -1.89166       -1.44395
H          5.43357       -3.26752       -0.95407
H          7.35984       -2.97298       -2.44937
H          4.88071       -0.75843       -5.20559
H          2.94723       -1.08448       -3.73668
H         -0.15007       -3.75912        0.18157
H         -0.94001       -5.11171        2.08162
H          3.12345       -5.52460        3.48258
H          3.91658       -4.13389        1.60359
