23

F          1.88920        1.23387       -1.05903
Ga         3.20846        0.11848       -0.51885
C          3.55075        0.82320        1.42694
C          4.46359        0.07571        2.44433
C          5.98389        0.01367        2.06977
C          6.85055       -0.99521        2.90899
F          6.72588       -0.77956        4.23345
F          6.52389       -2.27418        2.64770
F          8.15502       -0.82715        2.58053
F          6.12288       -0.35780        0.76598
F          6.55125        1.23922        2.23479
F          4.39246        0.65211        3.68957
F          4.01164       -1.21150        2.56786
F          4.07584        2.12007        1.34244
F          2.34353        0.94994        2.09114
S          2.17692       -2.07036       -0.45461
O          1.32086       -2.32383        0.72547
O          1.60277       -2.37251       -1.78687
C          3.57320       -3.24118       -0.28499
H          4.42846        0.06382       -1.50493
H          4.04864       -3.10088        0.69295
H          4.28156       -3.07165       -1.10490
H          3.12468       -4.24070       -0.35922
