56

C          0.78821        0.45757        0.35467
C          2.31113        0.61228        0.32143
C          2.97546        0.39688        1.68560
C          4.50293        0.51041        1.65817
C          5.15801        0.34894        3.03372
C          6.68941        0.37921        3.00092
C          7.33203        0.30252        4.39111
C          8.86735        0.28842        4.38240
Si         9.63025        0.56565        6.11293
C          9.04236        2.18004        6.78693
C          9.30801        3.39112        6.08029
C          8.81199        4.61239        6.48301
C          7.98024        4.76276        7.65256
C          7.72226        3.53273        8.36617
C          8.23219        2.31314        7.93711
N          7.53396        5.98086        7.97169
C          6.71090        6.07302        9.13561
C          6.25298        7.52871        9.33240
C          5.37894        7.81222       10.54048
O          4.44683        8.61949       10.53529
N          5.72621        7.14245       11.69313
C          9.13560       -0.89480        7.22343
C         11.51812        0.50704        5.88654
H          0.33970        0.62763       -0.63477
H          0.33053        1.17293        1.05448
H          0.49759       -0.55213        0.68256
H          2.57226        1.61662       -0.05328
H          2.73741       -0.09994       -0.40636
H          2.69170       -0.59720        2.07547
H          2.56816        1.12803        2.40627
H          4.78932        1.48871        1.23329
H          4.91065       -0.24898        0.96637
H          4.82343       -0.60145        3.48758
H          4.79473        1.14593        3.70552
H          7.02673        1.30669        2.50499
H          7.05965       -0.45206        2.37310
H          6.95700       -0.59750        4.91057
H          6.98586        1.16107        4.99188
H          9.23884        1.10745        3.74038
H          9.24791       -0.64730        3.93459
H          9.92876        3.36012        5.17636
H          9.03307        5.52117        5.91754
H          7.10286        3.55181        9.26491
H          7.98469        1.42166        8.52498
H          7.25576        5.73130       10.05964
H          5.80091        5.42306        9.09120
H          5.70313        7.86561        8.44449
H          7.15317        8.16423        9.39828
H          6.33824        6.33392       11.62892
H          5.07238        7.19556       12.46585
H          8.04603       -0.94802        7.35767
H          9.59106       -0.80458        8.22014
H          9.47035       -1.84543        6.78181
H         11.85746        1.34682        5.26257
H         11.84567       -0.42825        5.40643
H         12.02415        0.59355        6.85879
