32

C          1.04503       -0.16666        0.37115
C          2.56912       -0.08298        0.23178
C          3.08360        1.34886        0.03715
C          4.60455        1.47572       -0.17611
C          5.08220        2.90236       -0.47663
In         7.29664        3.23361       -0.82438
C          8.25428        1.53290       -2.01239
C          7.32377        0.84569       -2.97905
S          8.15383       -0.50866       -3.96425
C          6.75314       -1.08580       -4.97150
N          8.17782        2.90558        1.14535
H          0.69531       -1.20359        0.49140
H          0.54544        0.25207       -0.51650
H          0.69299        0.40698        1.24271
H          2.89115       -0.70096       -0.62420
H          3.04604       -0.52967        1.12105
H          2.78856        1.96363        0.90745
H          2.56966        1.79746       -0.83283
H          4.88758        0.79889       -1.00258
H          5.12402        1.07885        0.71466
H          4.81170        3.56293        0.36748
H          4.53617        3.29459       -1.35286
H          7.67830        4.83455       -1.53886
H          8.61743        0.83165       -1.24526
H          9.13111        1.94509       -2.53585
H          6.90860        1.54112       -3.72619
H          6.48086        0.36344       -2.46058
H          7.12349       -1.85953       -5.65760
H          6.32894       -0.26316       -5.56650
H          5.95959       -1.52079       -4.34561
H          7.51756        3.24348        1.85417
H          9.00223        3.50068        1.27491
