42

C          0.26433       -0.28177       -0.71426
C          1.78129       -0.12973       -0.55935
C          2.59361       -1.11000       -1.41572
C          4.11487       -0.89604       -1.34513
C          4.96578       -1.88637       -2.14878
Ga         6.91087       -1.28068       -2.36264
C          7.92562       -1.11851       -0.58581
C          7.37281       -0.00946        0.31598
C          8.28039        0.41904        1.48174
C          7.65907        1.49076        2.37410
N          8.59464        1.93022        3.43190
C          7.94766       -2.40639       -3.73245
C          9.30256       -1.79926       -4.04455
N         10.01494       -2.48710       -5.16573
H         -0.29011        0.43332       -0.08677
H         -0.06574       -1.29473       -0.43501
H         -0.04429       -0.11617       -1.75835
H          2.05867       -0.25921        0.50148
H          2.07422        0.90243       -0.81919
H          2.27211       -1.02401       -2.47015
H          2.35407       -2.14631       -1.11336
H          4.42128       -0.92251       -0.28316
H          4.33321        0.13489       -1.68178
H          4.55605       -1.97811       -3.17213
H          4.90062       -2.89386       -1.69876
H          6.84122        0.24416       -2.95921
H          8.97552       -0.88820       -0.84640
H          7.94752       -2.07931       -0.03957
H          6.39591       -0.32156        0.72805
H          7.15562        0.88527       -0.29685
H          9.23855        0.79515        1.08436
H          8.52847       -0.46721        2.09683
H          6.69886        1.10659        2.77583
H          7.41014        2.37438        1.76268
H          8.89813        1.11409        3.96819
H          8.11445        2.54057        4.09605
H          7.34293       -2.45667       -4.65467
H          8.07053       -3.44342       -3.36656
H          9.91707       -1.78587       -3.12140
H          9.17817       -0.74553       -4.34783
H         10.02254       -3.49064       -4.96433
H         10.99853       -2.19802       -5.18149
