65

C          3.49534       -0.50581        2.09950
In         2.63187       -0.32253        0.03366
C          3.80265        1.38081       -0.91925
C          4.61114        2.24357       -0.14819
C          5.34654        3.29311       -0.71005
C          5.32847        3.53904       -2.09986
C          4.54997        2.66670       -2.88863
C          3.81356        1.62719       -2.30770
Si         6.16109        5.05000       -2.82023
C          7.94658        5.28703       -2.17490
C          8.98589        4.28251       -2.69138
C         10.39524        4.65338       -2.25989
C         11.56349        3.68105       -2.65901
C         11.83519        3.33476       -4.17259
C         12.21892        4.45330       -5.22627
C         13.49296        5.33937       -4.95535
C         14.03985        6.08336       -6.23487
F         13.05157        6.72713       -6.88315
F         14.95640        6.99189       -5.84247
F         14.63554        5.22756       -7.08324
F         13.19421        6.28793       -4.03796
F         14.50776        4.56896       -4.48436
F         12.43508        3.78027       -6.39572
F         11.15248        5.27124       -5.40396
F         12.84061        2.41724       -4.18384
F         10.71969        2.73688       -4.67865
F         12.73286        4.16947       -2.14985
F         11.31593        2.47844       -2.06388
F         10.74371        5.90153       -2.73376
F         10.47749        4.72508       -0.88717
C          6.21598        4.97910       -4.71341
C          5.24477        6.62343       -2.29354
C          3.22205       -2.16913       -1.14381
C          4.64402       -2.12390       -1.71220
C          5.08282       -3.38197       -2.48525
C          6.47791       -3.26683       -3.09760
N          6.85076       -4.49495       -3.83184
H          3.41221        0.42870        2.67543
H          4.56332       -0.76860        2.03779
H          2.98875       -1.29742        2.67224
H          0.88005        0.00955       -0.00730
H          4.66822        2.09604        0.93594
H          5.93940        3.93783       -0.04908
H          4.50967        2.80455       -3.97471
H          3.22249        0.98704       -2.97246
H          7.92291        5.26728       -1.07448
H          8.24901        6.30804       -2.45989
H          8.97632        4.23838       -3.78971
H          8.77375        3.26714       -2.32524
H          6.73306        4.08064       -5.07949
H          6.73117        5.86073       -5.12322
H          5.19976        4.96414       -5.13227
H          5.22820        6.71020       -1.19741
H          4.20043        6.59288       -2.63480
H          5.71556        7.53043       -2.70167
H          2.49712       -2.33273       -1.95974
H          3.11904       -3.03127       -0.46077
H          5.36956       -1.94669       -0.89691
H          4.74988       -1.25266       -2.38299
H          4.35754       -3.60033       -3.28709
H          5.05802       -4.25291       -1.80298
H          7.20024       -3.00225       -2.29882
H          6.49034       -2.43336       -3.81939
H          6.83561       -5.28766       -3.18598
H          7.81362       -4.42486       -4.16735
