38

C          1.21467        0.11060        0.67603
C          2.69900        0.11645        0.30172
C          3.05065       -0.87920       -0.80831
C          4.53755       -0.90116       -1.17619
C          4.89362       -1.92435       -2.26509
C          6.39311       -1.98645       -2.60663
Al         6.85373       -3.44889       -3.88264
S          9.32643       -3.57536       -3.52758
O          9.97336       -2.78961       -4.62184
O          9.83001       -3.33812       -2.16187
C          9.99904       -5.36840       -3.97815
C          9.94696       -6.41920       -2.84039
F         10.84463       -6.14278       -1.87645
F          8.71720       -6.46890       -2.29077
F         10.23356       -7.66634       -3.31863
F          9.24702       -5.83691       -5.02091
F         11.28834       -5.26207       -4.39518
C          6.88317       -3.11095       -5.87982
C          7.04132       -1.68022       -6.26663
O          6.13809       -0.96422       -6.67645
O          8.28833       -1.14562       -6.11163
H          0.99129        0.82987        1.47769
H          0.89789       -0.88509        1.02286
H          0.58681        0.37014       -0.19032
H          3.30475       -0.11202        1.19540
H          2.99716        1.13099       -0.01320
H          2.45440       -0.64514       -1.70870
H          2.73913       -1.89252       -0.49613
H          5.13417       -1.12220       -0.27294
H          4.85187        0.10390       -1.50842
H          4.30951       -1.68785       -3.17249
H          4.54134       -2.91881       -1.93452
H          6.97282       -2.15544       -1.68153
H          6.72788       -1.01094       -2.99872
H          6.33560       -4.93111       -3.50516
H          5.94140       -3.49089       -6.29858
H          7.71327       -3.72450       -6.26217
H          8.89312       -1.79031       -5.65984
