16

C          2.54118        0.99562       -1.19287
C          2.62036        0.09480        0.05152
Al         3.23690        1.04427        1.74810
N          2.09701        2.52528        2.05508
C          5.19815        1.57228        1.53724
H          2.18832        0.48472       -2.11230
H          3.52520        1.43285       -1.43518
H          1.85576        1.84276       -1.01985
H          3.28809       -0.76370       -0.15631
H          1.62422       -0.34615        0.24482
H          3.06176        0.04962        3.06603
H          2.29981        3.38961        1.54971
H          1.99425        2.79161        3.03530
H          5.36583        2.27668        0.70146
H          5.84731        0.69762        1.34772
H          5.58575        2.06521        2.44686
