50

N          2.01590       -0.05175       -1.06910
B          2.69876        0.05984        0.23458
C          3.38773       -1.29212        0.76099
C          4.34738       -1.32090        1.79628
C          4.90625       -2.51219        2.25197
C          4.54190       -3.75895        1.69398
C          3.57254       -3.74312        0.67461
C          3.00672       -2.54264        0.23312
Si         5.51495       -5.28712        2.13078
C          7.29297       -5.01530        1.47854
C          7.27994       -4.43229        0.05994
C          8.60888       -4.33464       -0.68000
C          9.49047       -3.04030       -0.50272
C         10.10040       -2.63307        0.89461
C         11.10532       -3.57225        1.67337
C         12.48269       -4.02079        1.03603
C         13.51663       -2.92331        0.58455
F         13.73822       -2.02793        1.56444
F         14.68581       -3.54169        0.30344
F         13.11105       -2.27840       -0.51763
F         13.10384       -4.75042        2.00928
F         12.25653       -4.83483       -0.02115
F         11.40651       -2.90659        2.82515
F         10.46617       -4.72014        2.01308
F         10.75633       -1.45266        0.69830
F          9.07489       -2.39841        1.75393
F         10.53923       -3.12276       -1.37627
F          8.72348       -1.97844       -0.86796
F          9.41721       -5.42496       -0.44257
F          8.35346       -4.34423       -2.04005
C          5.64248       -5.58362        3.99518
C          4.80327       -6.83784        1.30985
Br         4.48917        1.57885        0.05741
H          1.56236        0.80321       -1.37905
H          2.59541       -0.39709       -1.83336
H          2.06089        0.66136        1.07830
H          4.67980       -0.36981        2.21797
H          5.66141       -2.47042        3.04521
H          3.25428       -4.68065        0.20746
H          2.24381       -2.56564       -0.54946
H          7.84355       -5.96810        1.50540
H          7.79347       -4.33672        2.18147
H          6.80635       -3.43960        0.04784
H          6.66404       -5.06113       -0.60273
H          6.02239       -4.68992        4.50992
H          6.32175       -6.41970        4.21929
H          4.65597       -5.81930        4.41851
H          4.79657       -6.75709        0.21390
H          3.76884       -7.01543        1.63607
H          5.40109       -7.72099        1.57877
