43

C          3.36696       -1.19233        0.58294
O          3.19998       -0.16786        1.54178
C          3.58009        1.10940        1.03789
C          3.55340        2.13194        2.17028
O          4.62521        2.03749        3.08662
C          5.84548        2.62844        2.58949
C          6.92476        2.58039        3.65783
B          8.28653        3.32939        3.18797
S          9.34108        2.33113        1.85681
O          8.52322        2.29808        0.63513
O         10.73789        2.75460        1.74256
C          9.48529        0.33727        2.05367
C         10.42068       -0.37964        3.09939
C          9.73130       -0.81939        4.43996
C         10.71704       -1.26309        5.58498
F         11.54653       -2.24202        5.16351
F         11.45395       -0.24195        6.04446
F          9.98693       -1.75133        6.61534
F          8.97745        0.19242        4.93350
F          8.92368       -1.88996        4.19783
F         10.91657       -1.53361        2.54078
F         11.48324        0.41582        3.38533
F          8.22808       -0.19405        2.15922
F          9.97803       -0.00983        0.83135
C          9.14312        4.11485        4.34598
C          9.76745        3.40360        5.57364
F          8.82971        2.72192        6.27935
F         10.72478        2.52651        5.19388
F         10.35026        4.28215        6.43498
F         10.17907        4.86586        3.81698
F          8.25925        5.04599        4.91930
H          3.06553       -2.13558        1.05768
H          4.42000       -1.27564        0.25390
H          2.73554       -1.02429       -0.31314
H          2.87288        1.42697        0.24145
H          4.58913        1.05844        0.58689
H          2.62821        1.98198        2.75055
H          3.51505        3.14592        1.71912
H          6.18250        2.10697        1.67792
H          5.63772        3.68037        2.30718
H          7.07644        1.53612        3.96770
H          6.54813        3.10763        4.54981
H          8.06582        4.23162        2.39551
