39

C          1.12955       -4.88934        6.21463
O          2.53885       -4.86499        6.13136
C          3.01664       -3.65908        5.53844
C          4.53725       -3.70639        5.46847
O          4.96393       -2.46117        4.96361
C          6.39558       -2.39188        4.79908
C          6.76068       -1.01145        4.28285
C          8.28438       -0.80678        4.15987
C          8.91285       -1.93696        3.24117
O          8.48344       -2.03798        2.07024
O          9.80700       -2.62123        3.83575
C          8.62036        0.56418        3.53482
C          8.20237        1.77314        4.38085
C          8.79407        3.10366        3.89510
C          8.33974        3.51151        2.49423
N          8.89600        4.82720        2.12324
O          8.90130       -0.91698        5.44740
H          0.84481       -5.83751        6.69018
H          0.65844       -4.83321        5.21339
H          0.74091       -4.05012        6.82471
H          2.70226       -2.78285        6.13881
H          2.59710       -3.53670        4.52081
H          4.86178       -4.54158        4.81530
H          4.95233       -3.89802        6.47961
H          6.72288       -3.17143        4.08718
H          6.88903       -2.57896        5.77038
H          6.33987       -0.26034        4.97179
H          6.30649       -0.86699        3.29112
H          8.17447        0.59521        2.52875
H          9.71560        0.59296        3.39832
H          8.52877        1.59345        5.41716
H          7.10201        1.85947        4.40810
H          9.89564        3.05137        3.90498
H          8.51464        3.90936        4.60023
H          7.23134        3.47639        2.45449
H          8.70359        2.77891        1.75866
H          8.52953        5.54254        2.75511
H          8.58542        5.08860        1.18630
H          9.53261       -1.67206        5.23547
