35

C          1.58450       -0.74100        0.71215
S          2.62200        0.70314        1.13242
O          1.67063        1.72935        1.62734
O          3.61561        0.18781        2.11371
Al         3.88349        1.32450       -0.80118
C          2.60804        1.94202       -2.33895
C          1.53028        3.05357       -2.26996
C          2.02314        4.45958       -1.80353
F          2.53226        4.40811       -0.55966
F          2.96667        4.95983       -2.63255
F          0.98370        5.33186       -1.79439
F          0.93096        3.24724       -3.49634
F          0.55439        2.66977       -1.39666
F          3.44304        2.30314       -3.41556
F          1.89209        0.82394       -2.79534
C          5.20430        2.70210       -0.19962
C          6.60107        2.11489        0.05113
C          7.61934        3.19426        0.46391
C          9.03490        2.67968        0.61616
C         10.07951        3.75592        1.04394
F         10.11061        4.77834        0.15466
F          9.77116        4.27023        2.25793
F         11.32560        3.23703        1.11824
F          9.11496        1.67957        1.55957
F          9.50656        2.14994       -0.56782
H          1.09285       -1.03735        1.64840
H          2.23220       -1.54238        0.33723
H          0.84539       -0.44270       -0.04148
H          4.47704       -0.06649       -1.36247
H          4.83189        3.19392        0.71455
H          5.26841        3.49425       -0.96688
H          6.96775        1.60782       -0.85477
H          6.55393        1.34589        0.83664
H          7.32118        3.65177        1.41961
H          7.64085        3.99784       -0.28821
