69

C         13.32989       -2.48462        5.07216
C         12.29536       -2.01586        4.04647
C         12.32842       -2.82114        2.74400
C         11.29523       -2.36642        1.70932
C         11.32090       -3.18659        0.41611
C         10.28648       -2.73855       -0.62048
C         10.29999       -3.58074       -1.90192
C          9.26010       -3.14128       -2.94416
Si         9.17847       -4.21256       -4.51430
C          8.74203       -5.98534       -4.05253
C          7.77865       -6.25230       -3.06073
C          7.39995       -7.55447       -2.73248
C          7.97620       -8.65617       -3.38598
C          8.94981       -8.40314       -4.36835
C          9.31878       -7.09737       -4.69492
C          7.58327      -10.08621       -3.01299
S          6.70811      -10.85846       -4.51347
O          7.61384      -10.80609       -5.66075
O          6.08706      -12.13228       -4.17787
C          5.20914       -9.74545       -5.08003
F          5.31647       -8.44779       -4.76223
F          5.20848       -9.83316       -6.44034
F          4.04366      -10.22940       -4.65269
C          8.79059      -10.95239       -2.67284
C          9.88198      -10.34898       -2.02388
C         10.96800      -11.10206       -1.57631
C         11.01992      -12.48894       -1.75876
C          9.92809      -13.09314       -2.39766
C          8.83302      -12.34983       -2.83643
C         12.19342      -13.30646       -1.27719
C          6.49514      -10.04892       -1.80799
O          5.32195       -9.91272       -2.22382
O          6.98242      -10.07717       -0.66606
C          7.84613       -3.49241       -5.65228
C         10.84435       -4.15328       -5.41436
H         13.28459       -1.89086        5.99635
H         14.35173       -2.40143        4.67178
H         13.16868       -3.53846        5.34434
H         12.45820       -0.94862        3.81793
H         11.28539       -2.08055        4.48548
H         12.16683       -3.88896        2.97391
H         13.33940       -2.75739        2.30325
H         11.46176       -1.30054        1.47098
H         10.28622       -2.42287        2.15449
H         11.15305       -4.25044        0.65777
H         12.33044       -3.13342       -0.02917
H         10.45780       -1.67750       -0.87724
H          9.27811       -2.78330       -0.17251
H         10.12891       -4.63753       -1.63694
H         11.31076       -3.54152       -2.34445
H          9.44785       -2.09609       -3.24964
H          8.25588       -3.13753       -2.48450
H          7.30228       -5.42711       -2.52312
H          6.64480       -7.72274       -1.96452
H          9.41379       -9.24209       -4.88614
H         10.07720       -6.95037       -5.46870
H          9.87311       -9.27432       -1.84728
H         11.79302      -10.59548       -1.06751
H          9.92423      -14.17610       -2.55010
H          7.99716      -12.87065       -3.29945
H         12.95430      -12.67091       -0.80364
H         12.67618      -13.84786       -2.10611
H         11.88103      -14.06218       -0.53954
H          6.86195       -3.51294       -5.16304
H          7.76602       -4.08004       -6.57785
H          8.06938       -2.45039       -5.92703
H         11.65213       -4.57873       -4.80260
H         11.11398       -3.11458       -5.65754
H         10.80966       -4.71532       -6.35855
