24

I          1.95933        1.00510        1.44400
B          3.61952       -0.18445        0.07077
C          4.28673       -1.27382        1.05621
C          3.32433       -2.37630        1.59703
C          3.32815       -2.49490        3.10825
O          3.72152       -3.46956        3.72728
O          2.86186       -1.41600        3.78951
C          4.60062        0.97057       -0.50544
C          5.64886        0.39779       -1.47561
C          6.60903        1.36013       -2.17086
O          7.47107        0.98414       -2.96943
N          6.45790        2.68122       -1.85156
H          2.88374       -0.66751       -0.77614
H          4.80309       -0.77782        1.89658
H          5.09286       -1.78443        0.49718
H          3.58256       -3.36558        1.20030
H          2.29404       -2.14507        1.27671
H          2.57464       -0.70232        3.15529
H          5.11072        1.48580        0.33013
H          3.99184        1.72879       -1.02835
H          5.15719       -0.16805       -2.28475
H          6.29349       -0.33941       -0.96962
H          5.74693        2.97462       -1.19257
H          7.07207        3.35948       -2.28303
