23

C          0.83660       -0.08571        0.02009
C          2.36483        0.03923        0.01049
C          2.86411        1.06749        1.03815
In         2.38378        3.19222        0.66230
S         -0.08121        3.46851        1.70413
O         -1.22003        2.98887        0.91807
O         -0.08160        3.14832        3.13529
F         -0.29966        5.16098        1.69365
C          2.07093        3.55642       -1.57814
F          3.28308        3.38295       -2.25659
F          1.20017        2.69493       -2.21549
F          1.65167        4.81734       -1.94307
C          3.01179       -1.33723        0.24984
H          0.34185        0.86582       -0.21603
H          0.48118       -0.40280        1.01393
H          0.49438       -0.83207       -0.71360
H          2.66709        0.37145       -0.99895
H          3.96479        1.03429        1.10396
H          2.48308        0.81872        2.04244
H          3.25728        4.51257        1.40134
H          2.73758       -1.72461        1.24476
H          4.10981       -1.27475        0.20775
H          2.68384       -2.07532       -0.50046
