41

N          0.88835       -0.18389       -0.12116
C          2.28971       -0.00043        0.35415
C          3.05482       -1.30816        0.46519
Ga         4.91704       -1.01250        1.24429
C          5.88677        0.32276        0.02725
C          6.77355       -0.07234       -0.98535
C          7.40633        0.85542       -1.83076
C          7.16277        2.22124       -1.69473
C          6.27981        2.64138       -0.69189
C          5.66630        1.70905        0.15279
C          6.03689        4.11463       -0.53487
F          7.14357        4.77977       -0.06259
F          5.72707        4.72429       -1.72513
F          5.02419        4.40768        0.32195
C          8.37287        0.36247       -2.86772
F          9.52906       -0.12346       -2.31198
F          7.86267       -0.66095       -3.61664
F          8.75740        1.33074       -3.75216
C          6.08278       -2.65849        1.48345
C          7.42711       -2.30130        2.12640
C          8.31879       -3.48973        2.52151
C          9.67000       -3.06524        3.10811
H          0.37899        0.70193       -0.04246
H          0.41930       -0.83214        0.51695
H          2.32971        0.52662        1.32911
H          2.78414        0.66279       -0.37585
H          3.10104       -1.80624       -0.51660
H          2.52757       -1.99435        1.15357
H          4.75753       -0.24969        2.66582
H          6.98691       -1.13557       -1.12999
H          7.64480        2.94134       -2.35410
H          4.99612        2.07193        0.93539
H          6.24433       -3.18437        0.52542
H          5.53167       -3.36462        2.13003
H          7.24956       -1.68793        3.02920
H          8.00162       -1.64615        1.44603
H          8.48232       -4.13209        1.63822
H          7.77660       -4.11578        3.25232
H         10.25745       -2.49381        2.37249
H         10.27822       -3.92776        3.42246
H          9.53315       -2.41586        3.98720
