21

F          2.71593        3.92885       -3.46719
C          2.95502        2.80502       -4.18974
C          3.09571        1.54520       -3.25462
N          2.17546        1.26312       -2.33419
C          0.85036        1.17806       -2.40569
C          0.18823       -0.07594       -3.09989
C          0.64284       -1.50750       -2.62144
C          0.50738       -1.88339       -1.10379
F         -0.72954       -1.62680       -0.63243
F          0.72044       -3.22459       -0.97819
F          1.41135       -1.26004       -0.34075
F         -0.14413       -2.41270       -3.29787
F          1.92845       -1.74112       -2.97307
F         -1.17953       -0.04500       -2.96512
F          0.45736       -0.04709       -4.43958
F          0.29480        1.15294       -1.10162
F          0.14900        2.27253       -3.02376
F          3.38482        0.49613       -4.21623
F          4.34477        1.73453       -2.63001
F          1.95433        2.67164       -5.09077
F          4.09515        3.03442       -4.90394
