18

C          3.19526       -0.92665       -0.69246
C          2.23013       -0.23157        0.24002
C          2.89342        0.00673        1.55802
C          1.98432        0.66163        2.62017
C          2.61643        0.92988        3.97238
O          2.05802        0.70209        5.05299
N          3.87943        1.48376        3.93212
O          1.95614        1.12173       -0.33899
H          3.46255       -1.92458       -0.30426
H          4.16555       -0.35599       -0.83050
H          2.77164       -1.06914       -1.69973
H          3.81841        0.67349        1.42696
H          3.27746       -0.95280        1.94628
H          1.09741        0.03513        2.78651
H          1.63080        1.61874        2.20089
H          4.40005        1.40185        3.05511
H          4.40020        1.47295        4.80528
H          1.03024        1.06287       -0.59814
