31

C          3.53857       -0.96260       -1.87538
S          3.06453       -0.54807       -0.17040
C          3.49105        1.22904       -0.13533
C          4.99385        1.51671       -0.16699
C          5.36083        2.98590       -0.46429
C          4.95460        3.43036       -1.95989
O          4.56785        2.51171       -2.72679
O          5.11796        4.65588       -2.19613
C          4.62409        3.98184        0.48040
C          4.90121        3.85234        1.95992
O          4.14296        3.38991        2.78903
O          6.12708        4.32155        2.38599
C          6.89438        3.17520       -0.36741
C          7.70787        2.45197       -1.44440
N          9.13301        2.83982       -1.33408
H          3.13104       -1.96025       -2.08552
H          4.62806       -0.98479       -2.00524
H          3.11580       -0.23255       -2.57688
H          3.02876        1.59942        0.79146
H          3.00174        1.70430       -0.99658
H          5.44467        0.90805       -0.96177
H          5.43936        1.19587        0.79160
H          3.54047        3.86871        0.35068
H          4.89374        4.98761        0.11780
H          6.63516        4.58948        1.59852
H          7.27900        2.84924        0.61519
H          7.09506        4.25816       -0.48398
H          7.26901        2.66577       -2.43337
H          7.65236        1.36322       -1.29030
H          9.21386        3.83620       -1.55349
H          9.66954        2.35738       -2.05776
