32

C          2.49159        1.09628        1.50946
C          2.73423        0.49759        0.12373
In         2.88552       -1.68291        0.03518
S          0.67321       -2.68716        1.20915
O         -0.38294       -1.74198        0.77723
O          0.43509       -4.12747        0.99704
C          0.60000       -2.53848        3.13829
F          0.92900       -1.28564        3.54102
F         -0.64954       -2.80635        3.58077
F          1.45261       -3.40207        3.73150
S          5.13099       -1.96800        1.51368
O          5.99381       -0.97968        0.82772
O          5.07867       -1.91739        2.98542
C          6.14493       -3.63887        1.07481
C          6.04691       -4.88777        1.99897
C          4.64155       -5.58733        2.02294
C          4.40784       -6.55290        3.24136
F          5.42903       -7.43291        3.35794
F          4.28897       -5.87596        4.39388
F          3.27309       -7.25273        3.04058
F          3.66387       -4.64982        2.05684
F          4.49771       -6.32951        0.89202
F          6.95728       -5.82815        1.57500
F          6.39669       -4.52930        3.26274
F          5.76570       -4.00590       -0.18893
F          7.45961       -3.29370        1.04153
H          2.44792        2.19805        1.46356
H          3.29194        0.83123        2.21434
H          1.54348        0.74858        1.94075
H          3.68009        0.85400       -0.30834
H          1.92384        0.75697       -0.57322
H          3.01256       -2.83787       -1.25480
