15

O          1.43482       -1.52504        0.54944
B          2.23086       -0.28596        0.50964
C          3.47975       -0.38726        1.52765
C          3.07773       -0.42048        3.02649
C          2.67029       -1.76690        3.62397
O          3.03140       -2.12027        4.73961
O          1.86729       -2.55952        2.89536
Br         3.02161       -0.04915       -1.52167
H          0.56069       -1.38248        0.16401
H          1.55048        0.72549        0.63540
H          4.11700        0.49699        1.37562
H          4.11864       -1.25837        1.29659
H          2.22016        0.26149        3.18522
H          3.88548       -0.05677        3.67726
H          1.65730       -2.15617        1.98412
