38

C          0.92101       -0.40330       -0.68088
C          2.19365       -0.07642        0.10175
C          2.59167       -1.10190        1.10739
C          2.40738       -2.48527        0.89269
C          2.82953       -3.42238        1.83145
C          3.46177       -3.03921        3.03479
C          3.66105       -1.65739        3.23757
C          3.24136       -0.71829        2.29902
Si         3.90116       -4.33322        4.30155
C          2.29997       -5.25480        4.79502
C          1.15883       -4.29833        5.15882
C         -0.12950       -4.98606        5.54850
F         -0.63108       -5.77506        4.55581
F          0.01407       -5.79254        6.64634
F         -1.11013       -4.08621        5.86265
C          5.09788       -5.62930        3.61942
C          4.64932       -3.56389        5.86111
C          3.45976        0.13097       -0.91729
O          3.46380       -0.63785       -1.90518
O          4.25347        1.03015       -0.55973
H          0.08024       -0.67019       -0.01802
H          1.10767       -1.22610       -1.38428
H          0.62023        0.46454       -1.28548
H          2.09179        0.89080        0.61394
H          1.93867       -2.82173       -0.03243
H          2.65918       -4.48368        1.61990
H          4.15269       -1.30332        4.14795
H          3.42361        0.34490        2.46903
H          2.51655       -5.93885        5.63128
H          1.99680       -5.88387        3.94300
H          0.92579       -3.63425        4.31293
H          1.42794       -3.64930        6.00612
H          4.69759       -6.08301        2.70164
H          5.28126       -6.43378        4.34731
H          6.06155       -5.16585        3.36665
H          3.96955       -2.83609        6.32632
H          5.58805       -3.04079        5.63042
H          4.87055       -4.34431        6.60372
