66

Cl         1.54799        0.27309       -0.40769
Al         3.72469        0.32482        0.11620
C          4.53148       -1.44115       -0.47673
C          4.78178       -1.78684       -1.82271
C          5.34003       -3.01401       -2.19051
C          5.68139       -3.98224       -1.22124
C          5.44099       -3.65177        0.12741
C          4.88596       -2.41616        0.47894
Si         6.46093       -5.60310       -1.73477
C          8.22569       -5.27198       -2.39628
C          9.11919       -4.55928       -1.37365
C         10.58578       -4.40920       -1.74297
C         10.99360       -3.51114       -2.96688
C         10.51303       -2.01138       -3.03361
C         10.96079       -0.95262       -1.94269
C         12.50187       -0.70185       -1.73570
C         12.84351        0.63408       -0.97127
F         12.14423        0.73267        0.17241
F         14.16043        0.62337       -0.66961
F         12.59843        1.71333       -1.73256
F         13.03115       -1.71878       -1.01409
F         13.13128       -0.63842       -2.93920
F         10.40652        0.22653       -2.34323
F         10.41596       -1.29700       -0.75132
F         10.91350       -1.53322       -4.24463
F          9.15340       -2.00458       -3.00936
F         12.35578       -3.50733       -3.06673
F         10.50201       -4.09288       -4.09991
F         11.28635       -3.92606       -0.65693
F         11.13284       -5.64463       -2.02992
C          6.57794       -6.80570       -0.27578
C          5.49764       -6.42634       -3.14053
C          4.52820        1.90945       -0.83471
C          4.10867        3.26303       -0.24405
C          4.63603        4.49653       -0.99389
C          4.26128        5.83062       -0.33961
C          4.74157        7.06453       -1.10997
C          4.39435        8.38656       -0.41952
H          3.86445        0.40683        1.74268
H          4.52664       -1.07647       -2.61645
H          5.50696       -3.22389       -3.25371
H          5.68515       -4.37074        0.91685
H          4.71748       -2.19942        1.53967
H          8.12562       -4.66672       -3.30968
H          8.68148       -6.22845       -2.69779
H          9.15449       -5.12591       -0.42871
H          8.71661       -3.56817       -1.12205
H          7.17298       -6.39962        0.55467
H          7.04021       -7.75363       -0.58854
H          5.57758       -7.03269        0.11953
H          5.39748       -5.74885       -4.00039
H          4.48318       -6.68910       -2.80885
H          5.99396       -7.34460       -3.48807
H          4.24039        1.87037       -1.90278
H          5.63256        1.82831       -0.81885
H          4.44196        3.32241        0.80873
H          3.00557        3.32510       -0.20542
H          4.25401        4.47522       -2.03093
H          5.73636        4.42673       -1.07656
H          4.67453        5.85991        0.68511
H          3.16376        5.88278       -0.22099
H          4.30401        7.05105       -2.12308
H          5.83420        7.00011       -1.25296
H          3.30649        8.48914       -0.28451
H          4.74281        9.25603       -0.99682
H          4.85390        8.44297        0.57945
