22

I          3.04791       -2.23775        0.83005
In         3.22586        0.25168       -0.48523
S          3.78580        2.15664        1.37046
O          3.85014        3.44198        0.63675
O          2.94795        2.10477        2.58498
C          5.57253        2.02941        2.12445
F          5.80205        0.79009        2.62874
F          6.52985        2.27690        1.19511
F          5.73224        2.92440        3.12704
C          4.81361        0.20041       -2.02909
C          6.29094        0.22347       -1.62849
C          6.71655       -0.94087       -0.73541
N          8.17915       -0.93876       -0.53881
H          1.60058        0.82220       -0.78458
H          4.58386        1.05693       -2.68073
H          4.58529       -0.71235       -2.60393
H          6.54786        1.16601       -1.12338
H          6.91620        0.19265       -2.54481
H          6.33160       -1.88836       -1.16362
H          6.24543       -0.84225        0.25452
H          8.64402       -1.16989       -1.41942
H          8.44106       -1.67069        0.12318
