34

S          1.39921        1.01405        0.87236
C          2.91539        0.15988        0.25248
C          3.49102       -0.74343        1.34159
C          4.72930       -1.51853        0.87695
B          5.39427       -2.48903        2.02797
C          4.30682       -3.53266        2.63381
C          3.68298       -4.51251        1.83489
C          2.71834       -5.39122        2.33670
C          2.32240       -5.34128        3.68066
C          2.93026       -4.37488        4.49550
C          3.89077       -3.50055        3.97980
C          1.29273       -6.29708        4.23525
C          6.74043       -3.24630        1.42551
C          7.63365       -3.89626        2.45375
O          8.26972       -4.92996        2.32091
O          7.71713       -3.20203        3.63009
H          1.13419        1.73751       -0.24174
H          3.64818        0.92238       -0.04821
H          2.64267       -0.43368       -0.63194
H          2.71536       -1.45305        1.67525
H          3.74700       -0.13316        2.22513
H          5.49252       -0.80002        0.51929
H          4.45304       -2.12306       -0.01117
H          5.76101       -1.73254        2.97225
H          3.95976       -4.59421        0.77892
H          2.26441       -6.13626        1.67467
H          2.64730       -4.30733        5.55147
H          4.34074       -2.75720        4.64452
H          0.88210       -6.94151        3.44499
H          0.44949       -5.76281        4.70171
H          1.72304       -6.95389        5.00868
H          7.36111       -2.47605        0.92751
H          6.52178       -4.00437        0.65684
H          7.01176       -2.50344        3.55251
