75

C         17.19374       -3.33065       -2.40003
C         16.68815       -3.20578       -0.96103
C         15.25068       -3.70243       -0.77692
C         14.73438       -3.57274        0.65891
C         13.29365       -4.05812        0.84628
C         12.77751       -3.90606        2.28014
C         11.32737       -4.36770        2.47282
C         10.81135       -4.18706        3.90791
Si         9.00489       -4.69639        4.23637
C          8.54310       -4.25041        5.99803
C          8.78488       -2.95430        6.49943
C          8.40525       -2.59352        7.79670
C          7.75569       -3.48835        8.67275
C          7.52223       -4.78073        8.15835
C          7.90513       -5.15866        6.86676
Ga         7.04346       -2.97192       10.52338
C          6.52532       -0.97523       10.56055
C          5.06119       -0.75449       10.97111
C          4.04138       -1.27678        9.95457
C          7.46160       -0.15790       11.45678
C          8.29779       -3.47927       12.07983
C          9.34767       -4.56452       11.80633
C         10.48218       -4.00888       10.93415
C         11.63554       -4.96056       10.73110
C         12.79785       -4.39197        9.86050
F         12.36971       -4.07645        8.62068
F         13.31452       -3.27045       10.42429
F         13.80802       -5.28698        9.73644
F         12.22032       -5.32283       11.93432
F         11.24138       -6.13206       10.12273
C          7.87896       -3.77869        3.01313
C          8.80882       -6.55764        3.93336
H         18.22564       -2.96541       -2.50159
H         16.56517       -2.75120       -3.09313
H         17.17592       -4.37782       -2.73805
H         16.75023       -2.15260       -0.63841
H         17.35457       -3.76806       -0.28522
H         15.18736       -4.75836       -1.09516
H         14.58368       -3.14237       -1.45649
H         14.80481       -2.51712        0.97582
H         15.39936       -4.13554        1.33761
H         13.22266       -5.11750        0.54136
H         12.63077       -3.50144        0.15983
H         12.85978       -2.84843        2.58705
H         13.43113       -4.47025        2.96838
H         11.24858       -5.42814        2.17421
H         10.68318       -3.81046        1.77009
H         10.91660       -3.12945        4.20724
H         11.44723       -4.75179        4.61191
H          9.27538       -2.20623        5.86540
H          8.61151       -1.56976        8.12883
H          7.00201       -5.51337        8.78479
H          7.69455       -6.17861        6.52757
H          5.73810       -3.91939       10.71007
H          6.63544       -0.60348        9.52355
H          4.87298        0.32905       11.14021
H          4.87271       -1.24127       11.94622
H          4.17727       -0.78580        8.97745
H          3.00616       -1.09086       10.28246
H          4.16670       -2.35883        9.80606
H          7.41486       -0.49887       12.50469
H          7.20617        0.92214       11.46154
H          8.51438       -0.24590       11.14527
H          7.61156       -3.84009       12.86338
H          8.80011       -2.59049       12.50145
H          8.89139       -5.42497       11.28954
H          9.78555       -4.95988       12.74164
H         10.89085       -3.09659       11.39715
H         10.08874       -3.72544        9.94569
H          7.95381       -2.69048        3.15296
H          6.82923       -4.05938        3.18094
H          8.12861       -4.00675        1.96592
H          9.43944       -7.14403        4.61686
H          9.09128       -6.81939        2.90279
H          7.76733       -6.87706        4.08210
