58

C          1.65740        1.62044       -1.78442
C          3.02077        0.92533       -1.65341
C          2.95199       -0.51040       -1.11400
Al         4.68279       -1.50514       -0.76781
C          5.88613       -0.35057        0.42474
C          5.40359        0.17990        1.64080
C          6.20233        0.95426        2.49153
C          7.53561        1.22721        2.16175
C          8.04072        0.71462        0.96811
C          7.22677       -0.05565        0.11900
C          9.46656        0.97928        0.57332
F         10.14028        1.75396        1.47548
F         10.19148       -0.17390        0.44292
F          9.56356        1.62041       -0.63065
C          5.67054        1.47355        3.79653
F          4.31212        1.48613        3.85619
F          6.09371        0.72375        4.86776
F          6.08455        2.75363        4.05964
C          5.76360       -1.96126       -2.43159
C          5.72726       -1.23706       -3.64377
C          6.49238       -1.59376       -4.75814
C          7.35927       -2.70544       -4.72333
C          7.41206       -3.43878       -3.52170
C          6.63164       -3.07470       -2.41926
Si         8.36777       -3.17692       -6.22697
C          9.36605       -1.65350       -6.80365
C         10.21032       -1.88484       -8.06103
C         10.97057       -0.66352       -8.53203
F         11.83752       -0.19060       -7.59429
F         11.71804       -0.93822       -9.64824
F         10.14650        0.37004       -8.86512
C          9.56989       -4.58447       -5.82878
C          7.23678       -3.71275       -7.65160
H          1.74543        2.64944       -2.17160
H          1.15263        1.67051       -0.80664
H          0.99585        1.05915       -2.46337
H          3.66802        1.53783       -1.00125
H          3.51435        0.93382       -2.64123
H          2.32894       -1.12575       -1.79186
H          2.39623       -0.50286       -0.15516
H          4.40135       -2.90261        0.04372
H          4.36925       -0.01190        1.93877
H          8.16028        1.83053        2.81876
H          7.65958       -0.43722       -0.81077
H          5.07657       -0.36057       -3.72841
H          6.41201       -0.99081       -5.67018
H          8.07124       -4.30932       -3.44276
H          6.69681       -3.68624       -1.51255
H         10.00904       -1.33465       -5.96858
H          8.65527       -0.82954       -6.97473
H          9.58937       -2.20423       -8.91188
H         10.96470       -2.67010       -7.90005
H         10.26937       -4.29927       -5.03014
H         10.16098       -4.86975       -6.71160
H          9.02835       -5.48054       -5.49361
H          6.52548       -2.91340       -7.90582
H          6.64812       -4.59306       -7.35578
H          7.79705       -3.97396       -8.56214
