10

C          0.93158       -0.09633        0.03405
C          0.51602        0.39203        1.42760
C          0.92555       -0.62989        2.50015
Br         0.15467        1.42266       -1.23112
Cl         2.81098        0.18856       -0.01852
H         -0.58466        0.46742        1.39739
H          0.90018        1.39582        1.70648
H          0.58553       -1.63822        2.21647
H          0.48975       -0.37382        3.47984
H          2.01942       -0.66394        2.60645
