32

N          1.28991        0.31483       -0.03064
C          2.74815        0.12678       -0.17324
C          3.07732       -1.30601       -0.60076
C          4.55863       -1.56691       -0.78737
Sb         5.08741       -3.76898       -0.91541
S          4.66442       -3.47682       -3.76987
O          5.09854       -2.13055       -4.26438
O          5.14928       -4.64220       -4.57275
C          2.84110       -3.48249       -4.05448
C          7.19688       -3.12556       -1.43939
C          8.00825       -4.19715       -2.13347
N          9.39738       -3.73119       -2.40705
H          1.08691        1.22675        0.38221
H          0.92590       -0.38185        0.62367
H          3.31327        0.35648        0.75385
H          3.10485        0.83103       -0.94282
H          2.53241       -1.52421       -1.53325
H          2.65853       -2.00060        0.15594
H          5.15748       -1.20677        0.06553
H          4.94625       -1.12161       -1.71339
H          3.33839       -4.17400       -0.81332
H          5.45781       -5.46177       -1.30473
H          5.35338       -3.96179        0.81482
H          2.39967       -2.61198       -3.55461
H          2.42547       -4.41398       -3.65097
H          2.69989       -3.42644       -5.14205
H          7.66632       -2.79586       -0.49876
H          7.05333       -2.25219       -2.09343
H          7.48163       -4.51228       -3.05247
H          8.08958       -5.09168       -1.49173
H          9.33591       -2.87196       -2.96022
H          9.86315       -4.40962       -3.01688
