31

N          0.67041        0.40048       -0.58588
C          2.11417        0.27091       -0.29364
C          2.84050        1.60493       -0.44925
C          4.34588        1.50819       -0.15939
C          5.13431        2.79708       -0.33860
P          7.03274        2.59480        0.14123
C          7.55215        2.27928       -1.72980
C          9.06129        2.13802       -1.91247
N          9.81278        3.41096       -1.81960
N          7.38877        4.44153       -0.06204
H          0.23047       -0.52198       -0.59553
H          0.55746        0.77496       -1.53105
H          2.61984       -0.48247       -0.93114
H          2.21400       -0.07987        0.74701
H          2.37145        2.35156        0.21341
H          2.69263        1.97400       -1.48214
H          4.78480        0.72560       -0.80551
H          4.49169        1.14757        0.87609
H          4.74266        3.58409        0.32918
H          5.03911        3.16134       -1.37793
H          6.64078        2.82180        1.57489
H          6.84018        1.13102        0.34703
H          8.43856        2.43903        0.57357
H          7.17904        3.09147       -2.37945
H          7.03670        1.34906       -2.03087
H          9.31863        1.66364       -2.87890
H          9.45246        1.46663       -1.12484
H          9.40383        3.91759       -1.01905
H          9.52761        3.98366       -2.62084
H          7.15414        4.86119        0.84476
H          6.72634        4.85946       -0.72509
