79

F          8.38356       13.87893        1.73506
C          7.70174       12.73213        2.04068
C          6.54036       12.48347        1.10443
C          5.48492       13.59495        1.11347
Si         4.03210       13.27900       -0.08706
C          3.23867       11.62895        0.31085
C          2.59356       11.43317        1.54866
C          1.99197       10.21507        1.87082
C          1.99624        9.12129        0.98277
C          2.65635        9.31960       -0.24720
C          3.25666       10.53577       -0.57904
B          1.33104        7.69147        1.34349
S         -0.36791        7.51085        0.38541
O         -0.93537        6.17147        0.46490
O         -1.28032        8.64171        0.52748
F          0.13640        7.62049       -1.21165
C          0.99668        7.44138        2.90362
C         -0.05744        8.07013        3.60154
C         -0.27506        7.84637        4.96200
C          0.55360        6.98536        5.71106
C          1.61070        6.35883        5.02274
C          1.81769        6.58109        3.65849
Si         0.17127        6.64318        7.51306
C         -1.48145        5.68875        7.61428
C         -1.49226        4.41666        6.75754
C         -2.71563        3.52368        6.88553
C         -4.12343        4.06418        6.43801
C         -4.30557        4.68494        5.00065
C         -4.05602        3.82770        3.69175
C         -4.91983        2.52821        3.48048
C         -4.88814        1.95974        2.01103
F         -3.62732        1.78903        1.58343
F         -5.50717        0.75612        2.01389
F         -5.54262        2.76260        1.15734
F         -4.46518        1.54484        4.29568
F         -6.22263        2.78032        3.77949
F         -4.32409        4.66880        2.65872
F         -2.74567        3.48542        3.64491
F         -5.58422        5.15132        4.94468
F         -3.46653        5.75105        4.90104
F         -5.03581        3.05795        6.57210
F         -4.48387        5.05972        7.30209
F         -2.50412        2.35526        6.18659
F         -2.89561        3.15139        8.20453
C          1.53568        5.60632        8.31746
C         -0.05873        8.24587        8.49151
C          2.80249       14.69720        0.14818
C          4.69597       13.31314       -1.85959
F          8.61667       11.71786        1.99329
F          7.31555       12.84807        3.34256
H          6.09720       11.51820        1.39167
H          6.97920       12.35085        0.10359
H          5.94899       14.56310        0.86378
H          5.06842       13.69818        2.12829
H          2.55285       12.24794        2.27993
H          1.50643       10.10882        2.84369
H          2.68584        8.49694       -0.96530
H          3.74538       10.63405       -1.55306
H          1.96999        6.76905        0.86820
H         -0.73447        8.73397        3.05822
H         -1.11627        8.35368        5.44665
H          2.28269        5.67911        5.55539
H          2.64061        6.06748        3.15407
H         -2.27578        6.37763        7.29038
H         -1.68962        5.44122        8.66744
H         -0.66091        3.75036        7.04040
H         -1.34648        4.65647        5.69513
H          1.67415        4.63833        7.81520
H          1.29820        5.40521        9.37246
H          2.49900        6.13497        8.28440
H         -0.83143        8.87963        8.03361
H          0.87483        8.82569        8.51231
H         -0.35935        8.04368        9.53020
H          2.39030       14.69566        1.16723
H          1.95867       14.59535       -0.54857
H          3.27527       15.67536       -0.02525
H          5.44430       12.52763       -2.03770
H          5.16847       14.28236       -2.07734
H          3.88410       13.16404       -2.58551
