43

C          2.24105       -3.03054       -0.72152
C          3.31946       -1.97458       -0.46224
C          3.89467       -1.36373       -1.74392
C          4.97342       -0.30010       -1.50807
C          5.52963        0.31849       -2.80163
C          6.60787        1.39215       -2.61671
Ga         7.30001        2.07814       -4.43266
C          5.77046        3.07930       -5.39580
C          4.89493        3.96877       -4.50414
C          5.74298        5.03702       -3.79623
C          4.95355        5.99813       -2.94326
C          5.81849        7.04295       -2.17344
F          6.67544        6.43410       -1.32412
F          6.54661        7.79506       -3.03506
F          5.04716        7.88794       -1.44614
F          4.05834        6.73980       -3.69615
F          4.20750        5.34754       -1.98222
C          8.94704        3.29724       -4.20726
N          9.61587        3.12365       -2.89175
H          1.84546       -3.45307        0.21446
H          2.63835       -3.86321       -1.32215
H          1.39349       -2.60177       -1.27814
H          4.13938       -2.42211        0.12561
H          2.90267       -1.16935        0.16690
H          3.07128       -0.91953       -2.33245
H          4.31111       -2.17030       -2.37426
H          5.80671       -0.74417       -0.93342
H          4.56118        0.50324       -0.87072
H          4.68027        0.73746       -3.37379
H          5.93173       -0.49239       -3.43619
H          7.45770        0.96350       -2.05503
H          6.20519        2.20990       -1.98906
H          7.67505        0.78175       -5.33047
H          5.13234        2.32256       -5.88170
H          6.19762        3.68557       -6.21601
H          4.40090        3.35408       -3.73397
H          4.08580        4.47484       -5.06485
H          6.29800        5.63408       -4.53706
H          6.49551        4.54907       -3.15852
H          8.65428        4.35104       -4.39893
H          9.66959        3.03302       -4.99923
H          8.91628        3.00192       -2.15843
H         10.16515        3.94670       -2.63099
