34

C          7.59733       -2.43426       -1.49385
S          6.90686       -0.77129       -1.27837
C          5.41669       -0.89541       -2.32896
C          4.66810        0.45230       -2.34427
Ta         5.20746        1.80177       -4.00964
C          3.79405        2.83820       -5.44653
F          2.66192        2.05488       -5.73961
F          3.24425        4.07882       -5.17727
F          4.40654        3.03173       -6.70015
C          7.37125        1.93046       -3.97980
C          8.23778        2.70429       -2.98787
C          9.76089        2.55135       -3.16866
C         10.28949        3.12839       -4.47898
N         11.75685        2.98141       -4.56701
H          8.52997       -2.47663       -0.91604
H          7.82769       -2.63510       -2.55002
H          6.91157       -3.20717       -1.11667
H          4.80072       -1.71799       -1.92205
H          5.73856       -1.20476       -3.34026
H          4.62227        0.87925       -1.32989
H          3.61068        0.25890       -2.62071
H          3.99196        2.67129       -3.05710
H          5.51499        3.54567       -3.98169
H          4.94272        0.72377       -5.44323
H          7.54983        2.26597       -5.02369
H          7.64052        0.84604       -3.95104
H          7.99037        2.37993       -1.96401
H          7.96915        3.77301       -3.04295
H         10.04186        1.48650       -3.10934
H         10.27831        3.05900       -2.33108
H          9.94886        4.18005       -4.56759
H          9.84948        2.58235       -5.32699
H         12.19407        3.50124       -3.80260
H         12.09964        3.40715       -5.42991
