19

N          0.95757        0.14738       -0.23386
C          2.40071       -0.08559       -0.07657
C          2.93605        0.07739        1.37122
C          2.24566       -1.01265        2.28657
O          2.95550       -1.98815        2.63579
O          1.01832       -0.79624        2.51215
C          4.44452       -0.02700        1.37944
O          4.94614        0.67500        2.58279
C          6.25691        0.72184        2.73808
F          6.87951       -0.49832        2.76799
F          6.91451        1.43245        1.74560
F          6.54180        1.34749        3.90886
H          0.78933        1.14819       -0.09579
H          0.52514       -0.28526        0.60091
H          2.94453        0.59333       -0.75932
H          2.62001       -1.11305       -0.41703
H          2.64083        1.07778        1.73151
H          4.91068        0.46036        0.50626
H          4.73509       -1.08396        1.46440
