40

N          2.15341       -2.42579       -0.28863
C          2.19639       -0.99030        0.06788
C          3.06216       -0.63769        1.29187
Al         5.02283       -1.14419        1.16495
C          6.02064        0.11176       -0.23059
C          5.79947        1.64152       -0.39136
C          6.03647        2.50047        0.89559
C          6.05098        4.05855        0.68208
F          4.96890        4.48566        0.00146
F          6.04585        4.66893        1.89381
F          7.15658        4.46475        0.02781
F          5.04204        2.24153        1.79007
F          7.22838        2.18917        1.47475
F          6.60460        2.18028       -1.37903
F          4.50238        1.85824       -0.77887
F          7.41517       -0.04120       -0.10958
F          5.72558       -0.36329       -1.52529
C          6.01520       -1.19907        2.93167
C          5.56962       -0.29123        4.08685
C          6.24304       -0.56161        5.44746
C          7.74849       -0.27992        5.47839
C          8.38624       -0.55453        6.84288
H          1.80462       -2.93969        0.52581
H          3.12536       -2.74352       -0.38422
H          1.14599       -0.66687        0.20043
H          2.56481       -0.45002       -0.82016
H          2.63133       -1.14304        2.18017
H          2.96625        0.44358        1.50459
H          5.23940       -2.57717        0.39222
H          7.09008       -1.05550        2.72020
H          5.92753       -2.25518        3.25684
H          4.47841       -0.38326        4.22772
H          5.73937        0.76729        3.82385
H          6.07129       -1.61785        5.72714
H          5.75432        0.04866        6.23107
H          7.92282        0.77228        5.19332
H          8.24780       -0.88867        4.70844
H          7.92418        0.06111        7.63092
H          9.46557       -0.33958        6.84202
H          8.25730       -1.60871        7.13404
