36

N          3.16593        2.64201       -0.58316
C          3.45029        1.19538       -0.60245
C          4.41895        0.84200       -1.73715
C          4.74518       -0.64718       -1.81334
Nb         5.77912       -1.53036       -3.47490
C          4.21617       -1.35496       -5.09294
C          4.36564       -1.68146       -6.60725
C          4.89298       -3.12087       -6.92339
C          4.96794       -3.50550       -8.44670
F          3.74731       -3.54973       -9.01753
F          5.73698       -2.65049       -9.14860
F          5.51647       -4.74080       -8.55521
F          6.16017       -3.25094       -6.44120
F          4.09574       -4.05575       -6.34103
F          3.15853       -1.54198       -7.26497
F          5.23155       -0.79907       -7.18811
F          3.02150       -1.99025       -4.69408
F          3.84640        0.02056       -5.09085
C          7.96775       -0.89292       -3.28341
C          8.57047       -1.11449       -1.93786
O          9.07901       -0.24941       -1.23695
O          8.51803       -2.40457       -1.46699
H          2.46755        2.85587        0.13052
H          2.75254        2.91618       -1.47723
H          2.54232        0.56750       -0.71125
H          3.90876        0.92795        0.36373
H          5.34200        1.42774       -1.60512
H          3.96958        1.17398       -2.68999
H          3.82133       -1.26832       -1.86003
H          5.31966       -0.99225       -0.92949
H          6.67049       -3.00317       -2.98107
H          6.32336       -0.58728       -4.84709
H          5.14929       -3.12205       -3.89345
H          8.12677        0.15233       -3.57398
H          8.44800       -1.54884       -4.02850
H          7.87136       -2.86395       -2.07447
