17

O          0.90117       -0.05806       -0.16080
N          2.33249       -0.00631       -0.55586
C          2.89496        1.17604       -0.28628
C          4.21805        1.25084       -0.88412
C          4.94471        2.41182       -0.95441
C          4.43709        3.61635       -0.40113
C          3.23781        3.55610        0.28267
C          2.46200        2.37713        0.43724
C          1.39746        2.51938        1.46588
O          1.12789        3.59398        2.00999
O          0.74734        1.40857        1.91016
H          0.75809       -1.01470       -0.19877
H          4.58605        0.33105       -1.34307
H          5.92007        2.40019       -1.45015
H          4.99756        4.54982       -0.46999
H          2.84762        4.43557        0.79794
H          0.83076        0.68952        1.21752
