75

C          6.38059       -3.97361        1.68412
C          5.65712       -3.34621        0.48936
C          5.43964       -4.32808       -0.66906
C          4.73996       -3.69796       -1.87786
Ta         5.38044       -2.21696       -3.34345
C          4.08377       -0.45683       -2.98909
C          3.23549       -0.28299       -1.86084
C          2.44960        0.85332       -1.68440
C          2.45838        1.89822       -2.62738
C          3.27448        1.77399       -3.74602
C          4.06748        0.62374       -3.91870
C          4.96670        0.41277       -5.04777
O          5.66174       -0.59986       -5.13645
O          5.06498        1.34235       -6.04841
C          7.57133       -2.48137       -3.68567
C          8.34943       -2.28389       -4.84976
C          9.70978       -2.58614       -4.90261
C         10.39775       -3.12728       -3.78977
C          9.64015       -3.31930       -2.61771
C          8.28164       -2.99104       -2.57210
Si        12.20214       -3.58372       -3.89184
C         13.16319       -2.16062       -4.73453
C         13.01836       -0.83077       -3.98232
C         13.65356        0.33714       -4.71239
C         13.50289        1.75404       -4.04862
C         14.08381        2.02340       -2.60729
C         15.63245        1.89519       -2.29962
C         16.63634        2.77446       -3.13423
C         18.08596        2.86440       -2.52133
F         18.58889        1.63955       -2.27854
F         18.88527        3.48570       -3.41356
F         18.09992        3.57569       -1.38068
F         16.76752        2.25650       -4.37756
F         16.16979        4.04712       -3.22689
F         15.76773        2.25977       -0.98952
F         15.99766        0.59424       -2.41058
F         13.71762        3.29126       -2.27438
F         13.47670        1.17259       -1.73279
F         14.05314        2.69251       -4.87523
F         12.17014        2.01753       -3.94460
F         15.00282        0.12946       -4.91903
F         13.09399        0.48971       -5.96078
C         12.94059       -3.86935       -2.16843
C         12.49555       -5.13857       -4.93564
H          6.50709       -3.25603        2.50848
H          7.38224       -4.32896        1.39633
H          5.82573       -4.84026        2.07707
H          6.22523       -2.47545        0.12207
H          4.67942       -2.94963        0.81394
H          4.87316       -5.19754       -0.27974
H          6.41920       -4.73116       -0.97989
H          3.70813       -3.39047       -1.60859
H          4.59351       -4.47117       -2.67457
H          6.28229       -0.80630       -2.68441
H          3.92118       -2.28438       -4.38445
H          5.63152       -3.17898       -4.82354
H          3.19311       -1.06097       -1.09267
H          1.81541        0.94014       -0.79707
H          1.84316        2.78719       -2.48168
H          3.28433        2.59301       -4.47759
H          4.45611        2.07072       -5.83573
H          7.86202       -1.88475       -5.74312
H         10.24860       -2.40940       -5.84143
H         10.11823       -3.71600       -1.71529
H          7.76835       -3.12693       -1.61268
H         12.77345       -2.05395       -5.75885
H         14.22585       -2.43565       -4.82765
H         13.47969       -0.89744       -2.98712
H         11.95547       -0.58788       -3.82909
H         12.82487       -2.98822       -1.52125
H         14.01313       -4.10574       -2.23608
H         12.44631       -4.71204       -1.66380
H         12.10007       -5.00469       -5.95268
H         11.97291       -5.99789       -4.49130
H         13.56433       -5.38947       -5.01310
