23

N          4.48710        1.26389       -2.13442
Al         5.43480        1.31139       -0.57935
S          3.98825        0.71843        1.37342
O          2.88577       -0.21345        1.06409
O          4.80956        0.41425        2.56321
C          3.02910        2.33201        2.09038
C          2.17223        3.25075        1.16526
C          0.77728        2.71345        0.68941
C         -0.00127        3.65893       -0.30214
F         -0.24229        4.87317        0.23161
F          0.66234        3.82398       -1.46159
F         -1.19691        3.08797       -0.58477
F          0.91803        1.53077        0.05238
F         -0.03730        2.54704        1.77024
F          1.92003        4.43813        1.81726
F          2.91574        3.54671        0.05749
F          2.24920        1.89517        3.12269
F          3.99425        3.14952        2.61099
S          6.81083       -0.47307       -0.37105
H          3.93919        2.07806       -2.40437
H          3.95730        0.43093       -2.38084
H          5.96517        2.76871       -0.17309
H          6.81329       -0.61407       -1.71879
