47

N          3.43540        1.15237       -0.81345
B          2.58449        0.30511        0.18506
C          3.47280       -0.73161        1.09366
C          4.71147       -0.37184        1.67250
C          5.46995       -1.25075        2.44583
C          5.03779       -2.57394        2.69047
C          3.80478       -2.95267        2.11951
C          3.05710       -2.05643        1.35127
Si         6.07446       -3.73692        3.70912
C          6.27304       -3.02837        5.47683
C          7.13713       -3.87416        6.41672
C          7.29106       -3.30409        7.81019
F          6.09948       -3.15329        8.45518
F          8.05898       -4.11786        8.60461
F          7.89656       -2.08233        7.81455
C          5.27587       -5.45066        3.84645
C          7.81268       -3.93540        2.97114
C          1.71137        1.34064        1.14916
C          0.77752        2.20304        0.27895
C          0.17961        3.44075        0.96304
C          0.93476        0.63578        2.27050
H          3.97878        0.55568       -1.44030
H          4.12541        1.73919       -0.33426
H          1.78171       -0.39094       -0.46890
H          5.09866        0.63889        1.49852
H          6.42201       -0.90209        2.86538
H          3.42464       -3.96869        2.27266
H          2.10931       -2.38978        0.91547
H          5.26332       -2.90602        5.89842
H          6.69211       -2.01394        5.38674
H          8.15844       -3.99582        6.02491
H          6.72021       -4.88456        6.54608
H          4.28318       -5.39398        4.31543
H          5.89417       -6.13826        4.44259
H          5.14779       -5.90071        2.85153
H          8.31494       -2.95998        2.89335
H          7.74411       -4.34844        1.95465
H          8.45546       -4.60354        3.56437
H          2.43971        2.03226        1.63173
H         -0.04121        1.55853       -0.09140
H          1.34238        2.51592       -0.61352
H         -0.42050        3.17871        1.84918
H         -0.47584        4.00885        0.28154
H          0.97636        4.12392        1.30063
H          0.23280       -0.10159        1.84208
H          0.34207        1.32601        2.89825
H          1.60862        0.08233        2.94142
