34

N          0.98374       -0.71236       -0.62226
C          2.46146       -0.65297       -0.53851
C          2.95788        0.79358       -0.54461
C          4.46115        0.95987       -0.43740
As         5.01444        2.93084       -0.85913
C          5.31562        4.98125       -1.35242
C          4.28154        5.41567       -2.37234
C          4.04704        6.89751       -2.63713
O          3.43363        7.32413       -3.62065
N          4.53278        7.75234       -1.68078
C          7.03193        2.43478       -1.07882
C          7.43029        2.14636       -2.51611
H          0.67934       -1.66843       -0.81556
H          0.67897       -0.15189       -1.42199
H          2.96342       -1.20014       -1.36254
H          2.76317       -1.14623        0.40097
H          2.45574        1.34329        0.26925
H          2.61787        1.27656       -1.48434
H          4.98991        0.34108       -1.18118
H          4.83821        0.72184        0.57041
H          3.45674        3.38058       -0.67739
H          4.72545        2.61342       -2.45015
H          5.32530        3.24467        0.72152
H          6.34801        5.14192       -1.69901
H          5.17559        5.44936       -0.36391
H          3.29496        5.00531       -2.06477
H          4.48007        4.96161       -3.35494
H          5.14821        7.39092       -0.96028
H          4.45913        8.74840       -1.84413
H          7.19558        1.56855       -0.41899
H          7.57779        3.29346       -0.65892
H          6.82964        1.32407       -2.93698
H          8.49514        1.87203       -2.62935
H          7.24566        3.02123       -3.16083
