75

C          5.94984        1.67648       -2.47358
C          4.91762        2.64949       -1.89325
C          4.36141        2.23984       -0.51933
C          5.39916        2.32540        0.60901
C          4.94464        1.88800        2.02503
C          4.63108        0.40970        2.14570
C          5.04794       -0.54684        1.20262
C          4.80963       -1.91226        1.38950
C          4.15037       -2.38985        2.52863
C          3.76001       -1.44284        3.48972
C          3.99500       -0.08170        3.30700
C          3.85784       -3.85977        2.71022
C          3.78520        2.78026        2.45358
C          2.44239        2.41376        2.25075
C          1.39267        3.27274        2.58259
C          1.62932        4.54745        3.13309
C          2.97648        4.91885        3.31729
C          4.02557        4.05910        2.98782
Si         0.18892        5.64048        3.62786
C         -0.93838        4.64000        4.79224
C         -2.21635        5.32188        5.30032
C         -3.06480        4.41777        6.20341
C         -4.35055        5.07027        6.71914
C         -5.19100        4.14072        7.60007
C         -6.48702        4.77133        8.11682
C         -7.32249        3.82689        8.98701
C         -8.61912        4.45807        9.49907
C          0.79403        7.20227        4.51187
C         -0.80634        6.16063        2.09791
C          6.22564        2.10620        3.06794
O          5.89698        2.15414        4.27361
O          7.34396        2.17690        2.51613
H          6.30565        2.00783       -3.46068
H          5.51568        0.67174       -2.59575
H          6.82794        1.57917       -1.82040
H          4.08045        2.74758       -2.60601
H          5.36894        3.65404       -1.81284
H          3.94769        1.21908       -0.58932
H          3.50849        2.89390       -0.27701
H          5.74484        3.36851        0.69050
H          6.30830        1.75372        0.37592
H          5.58511       -0.23004        0.30850
H          5.15159       -2.62237        0.63034
H          3.27206       -1.78125        4.40905
H          3.72453        0.62730        4.08935
H          4.57292       -4.48233        2.15321
H          2.84822       -4.12260        2.35097
H          3.90827       -4.15156        3.76968
H          2.21658        1.42919        1.83728
H          0.36652        2.93151        2.40824
H          3.21894        5.89474        3.74734
H          5.05449        4.36633        3.17712
H         -0.31712        4.32212        5.64774
H         -1.20227        3.70556        4.26608
H         -2.83381        5.65087        4.44595
H         -1.95800        6.24074        5.85568
H         -2.45149        4.08942        7.06088
H         -3.32052        3.49788        5.64838
H         -4.95884        5.40783        5.86109
H         -4.09651        5.98260        7.28761
H         -4.58210        3.80626        8.45843
H         -5.43489        3.22664        7.03036
H         -7.09637        5.10973        7.25985
H         -6.24706        5.68165        8.69469
H         -6.71285        3.48985        9.84243
H         -7.55820        2.91766        8.40831
H         -8.41249        5.34893       10.11125
H         -9.19606        3.75551       10.11718
H         -9.26306        4.77463        8.66464
H          1.37299        6.95286        5.41250
H         -0.05167        7.83560        4.81773
H          1.43948        7.80480        3.85651
H         -1.16775        5.28022        1.54722
H         -0.17334        6.74114        1.41145
H         -1.67755        6.77921        2.36102
