20

Cl         0.87227       -0.20138        0.00472
B          2.67742       -0.20206       -0.39185
S          3.35876        1.49688        0.35484
O          2.55970        2.60492       -0.17218
O          3.65787        1.46232        1.78858
C          5.13809        1.90868       -0.39001
C          5.38969        1.70937       -1.90976
F          4.44644        2.32025       -2.65194
F          6.59629        2.24517       -2.26063
F          5.42228        0.40409       -2.23818
F          5.30811        3.23743       -0.12498
F          6.10101        1.22360        0.28021
C          3.45434       -1.48757        0.25696
C          3.24738       -2.84106       -0.49044
F          1.95544       -3.23862       -0.47177
F          3.63428       -2.74867       -1.78708
F          3.98219       -3.83928        0.07460
F          4.83530       -1.29739        0.23177
F          3.12593       -1.74674        1.57425
H          2.88781       -0.10519       -1.57503
