22

C          1.02272       -0.30251        0.28795
C          2.49270        0.00557       -0.01771
C          2.87514        0.50299       -1.44236
C          2.29065       -0.44494       -2.49778
F          0.93698       -0.31300       -2.63084
F          2.80686       -0.29294       -3.74155
F          2.50693       -1.76980       -2.16940
C          2.31648        1.98101       -1.68210
O          2.69470        2.54659       -2.76869
O          1.58771        2.47349       -0.81081
C          4.43450        0.46612       -1.49773
C          5.27541        0.78243       -2.75774
O          6.33852        0.18305       -2.90736
O          4.86196        1.72702       -3.57099
H          0.91609       -0.52720        1.36039
H          0.65628       -1.17444       -0.26989
H          0.39335        0.56325        0.05286
H          3.10035       -0.88710        0.20269
H          2.82706        0.80242        0.66151
H          4.77582       -0.52596       -1.17193
H          4.78431        1.17581       -0.72874
H          3.87774        2.08378       -3.25781
