20

C          0.92920       -0.10683        0.09510
C          2.44917       -0.14348       -0.10211
C          2.99413        1.01959       -0.94873
C          4.51035        1.01389       -1.18089
Al         5.15233        2.56661       -2.30673
C          7.20380        2.30276       -2.59268
F          7.96129        2.28346       -1.41603
F          7.54990        1.09986       -3.21992
F          7.83769        3.27148       -3.37309
H          0.56774       -0.94591        0.71022
H          0.40368       -0.15287       -0.87202
H          0.61650        0.82667        0.58921
H          2.73861       -1.09656       -0.57863
H          2.95245       -0.13547        0.88059
H          2.69539        1.96880       -0.46444
H          2.46968        1.01510       -1.92305
H          4.80677        0.06774       -1.67114
H          5.03600        1.02767       -0.20777
H          4.47144        2.55645       -3.79645
H          4.96408        4.00184       -1.54105
