21

F          5.04462       -0.49037       -1.83818
S          4.47652       -1.63483       -0.70772
O          3.03243       -1.41201       -0.81424
O          5.01548       -2.87363       -1.24521
N          5.15595       -1.24320        0.62505
C          4.61376       -0.09297        1.33169
C          5.20463       -0.08553        2.75091
C          6.74743       -0.09703        2.75768
C          7.37643        1.27326        2.82241
C          8.93610        1.27116        2.78122
F          9.44478        0.56847        3.82617
F          9.39314        0.71119        1.64192
F          9.43369        2.52857        2.85530
F          6.97044        2.09449        1.79860
F          7.04085        1.92767        4.00109
H          3.51011       -0.12529        1.41308
H          4.86313        0.86164        0.82609
H          4.86726       -1.00042        3.26032
H          4.81627        0.76974        3.32588
H          7.08281       -0.61221        1.84265
H          7.14040       -0.65692        3.61873
