28

N          2.79058        2.39089        2.06157
C          3.35290        1.43778        1.08417
C          3.78171        0.13795        1.76585
C          4.34601       -0.90235        0.78650
Al         5.14752       -2.56356        1.53837
C          4.00339       -3.50086        3.02111
C          2.85478       -4.38877        2.47277
C          1.79239       -4.96701        3.46662
F          2.37359       -5.67435        4.45627
F          1.04152       -3.99440        4.01951
F          0.94756       -5.80591        2.80508
F          2.14597       -3.65318        1.54956
F          3.39900       -5.46158        1.82148
F          4.76762       -4.32153        3.84888
F          3.39774       -2.56630        3.87001
S          7.04372       -1.67551        2.76510
O          7.98866       -1.05414        1.83583
O          6.74179       -0.95232        3.99906
F          7.87640       -3.04121        3.30614
H          2.65925        3.30641        1.62820
H          3.46783        2.52928        2.81536
H          4.22270        1.84220        0.52699
H          2.57130        1.21893        0.33635
H          2.92026       -0.27355        2.31517
H          4.53717        0.38304        2.53362
H          5.13946       -0.44026        0.17016
H          3.55863       -1.20696        0.07175
H          5.77283       -3.64338        0.52928
