25

C          0.92315       -0.17674        0.04837
C          2.39106        0.19292        0.27968
C          3.02549       -0.55514        1.46544
C          4.49030       -0.19912        1.70974
Nb         5.43360       -0.93817        3.49408
S          5.62568       -3.39702        3.56747
O          4.91826       -3.19815        2.26614
O          6.72409       -4.35547        3.59408
F          4.46291       -4.20326        4.48152
C          6.87621        0.75990        3.86137
F          6.29980        2.03521        3.90297
F          7.63229        0.68038        5.01234
F          7.81808        0.90087        2.83061
H          0.49603        0.36028       -0.81208
H          0.31076        0.06552        0.93080
H          0.81169       -1.25540       -0.14021
H          2.47854        1.27919        0.45086
H          2.97764       -0.01963       -0.63003
H          2.94232       -1.64097        1.29678
H          2.42705       -0.34011        2.36932
H          4.61987        0.89039        1.89457
H          5.13330       -0.47332        0.85381
H          4.96809        0.10692        4.82840
H          4.31042       -1.52691        4.70717
H          7.10068       -1.48696        3.35364
