30

N          1.13340        0.24647        0.90088
C          2.58349        0.20740        0.61372
C          2.94907       -1.01475       -0.22649
C          4.43242       -1.12383       -0.55798
P          4.90636       -2.87512       -1.20772
C          5.31765       -4.75460       -1.81999
F          6.01096       -4.83320       -3.01741
F          6.08910       -5.48800       -0.92534
F          4.19163       -5.52630       -2.01324
C          6.82954       -2.59429       -0.77874
C          7.19166       -2.85811        0.67717
C          8.59693       -2.49015        1.13454
O          8.96245       -2.42279        2.29157
O          9.48897       -2.24144        0.12734
H          0.92983        0.97682        1.58585
H          0.86250       -0.63604        1.34130
H          3.20818        0.20199        1.53032
H          2.84082        1.12777        0.06246
H          2.34635       -1.00907       -1.14885
H          2.64777       -1.92651        0.32799
H          5.03051       -0.92666        0.34870
H          4.72710       -0.37882       -1.31786
H          4.66937       -3.45483        0.14799
H          5.21654       -2.40238       -2.58059
H          3.50820       -3.15915       -1.58021
H          7.00601       -1.54305       -1.06204
H          7.38903       -3.24648       -1.47002
H          7.06687       -3.92990        0.90596
H          6.49759       -2.34607        1.36279
H          8.96911       -2.31429       -0.70467
