34

C          2.70050       -2.48734       -0.47575
C          3.01402       -0.98765       -0.44859
C          3.82130       -0.51103       -1.66700
C          4.12240        0.98373       -1.67409
Nb         5.25130        2.05045       -3.27892
C          4.30678        2.83294       -5.15007
C          4.53289        2.39997       -6.61650
C          4.04837        0.96618       -7.01551
F          2.75249        0.76665       -6.70288
F          4.17181        0.81515       -8.36365
F          4.79160        0.01086       -6.43471
F          3.91345        3.26805       -7.48869
F          5.87468        2.44102       -6.88579
F          2.93263        2.98845       -4.98132
F          4.82645        4.16404       -5.10801
C          7.53198        2.02488       -3.32345
C          8.26810        3.34688       -3.64999
F          7.83502        4.34393       -2.82915
F          9.62448        3.28490       -3.51381
F          8.01645        3.73199       -4.92731
F          7.99027        1.68441       -2.04078
F          8.08742        1.09587       -4.20432
H          2.12873       -2.80761        0.40891
H          3.62543       -3.08435       -0.51127
H          2.11061       -2.74993       -1.36806
H          3.57109       -0.74227        0.47260
H          2.07178       -0.41482       -0.39242
H          3.27417       -0.77798       -2.58768
H          4.76894       -1.07489       -1.71280
H          4.67426        1.27143       -0.75709
H          3.17858        1.56742       -1.64991
H          5.88832        0.45266       -3.03666
H          4.30122        0.76200       -3.96435
H          4.75781        3.22827       -2.00740
