9

Br         1.01296       -0.29720        0.18014
N          2.89556        0.08585        0.11000
C          3.19822        1.07540       -0.73634
C          2.78948        1.10489       -2.25817
F          1.47406        1.35244       -2.46996
F          3.48014        2.04624       -2.97250
F          3.06832       -0.09333       -2.85107
F          2.78793        2.48935       -0.35347
F          4.59743        1.17087       -0.75483
