37

N          4.57230       -0.65576       -2.45042
Sb         4.66875        0.69498       -0.79587
C          4.70606        2.18529        0.87915
C          3.71369        3.16776        1.01749
C          3.74772        4.07771        2.07848
C          4.78169        4.04785        3.03966
C          5.78096        3.06554        2.88602
C          5.73694        2.15378        1.82520
Si         4.75798        5.20729        4.50772
C          3.39249        4.64654        5.72255
C          3.48102        3.15982        6.08552
C          2.42672        2.70449        7.06868
F          1.15750        2.89112        6.60877
F          2.54515        1.37490        7.36069
F          2.50579        3.36765        8.26481
C          6.41687        5.18360        5.42218
C          4.35717        6.98512        3.99802
F          3.39640        2.01764       -1.77137
H          4.95869       -0.12606       -3.24033
H          3.57073       -0.72118       -2.66448
H          3.18119       -0.04125       -0.18381
H          5.76021       -0.33777        0.14011
H          5.98587        1.54729       -1.62345
H          2.91818        3.21675        0.26930
H          2.95363        4.82945        2.15572
H          6.60707        3.00929        3.60245
H          6.52546        1.39740        1.73475
H          2.41709        4.85233        5.25362
H          3.44308        5.26604        6.63286
H          4.45091        2.90999        6.54199
H          3.37922        2.53137        5.18848
H          6.66871        4.18151        5.79747
H          6.39626        5.86815        6.28292
H          7.23326        5.49971        4.75732
H          3.40903        7.03395        3.44405
H          5.14332        7.38628        3.34285
H          4.27137        7.64511        4.87395
