48

F          2.59327        1.94169        0.60662
In         1.43805        0.32125        1.16299
C          3.05143       -1.18418        1.56103
C          4.39215       -0.79588        1.76424
C          5.40191       -1.71867        2.04961
C          5.09476       -3.08788        2.12957
C          3.77896       -3.51060        1.89253
C          2.78824       -2.56579        1.61506
C          6.15870       -4.08449        2.47958
C          6.64701       -4.12156        3.98100
C          5.60389       -4.30800        5.14887
C          4.73848       -5.62802        5.28706
C          5.48066       -7.00792        5.43525
C          4.56361       -8.17786        5.96316
F          3.43372       -8.28026        5.23994
F          5.24724       -9.33725        5.85222
F          4.23952       -8.00787        7.25720
F          5.95925       -7.39449        4.22906
F          6.51504       -6.89841        6.30988
F          3.99513       -5.44785        6.42047
F          3.88820       -5.71657        4.23750
F          6.30933       -4.18390        6.31316
F          4.70722       -3.29354        5.09536
F          7.58544       -5.10805        4.12242
F          7.25955       -2.93255        4.24888
F          5.77879       -5.37364        2.17457
F          7.32593       -3.84501        1.77236
C          0.31787       -0.27498       -0.68618
C          0.97719        0.14680       -2.00174
C          0.14505       -0.30075       -3.22374
C          0.69462        0.12570       -4.56852
C         -0.15716       -0.33377       -5.79325
F         -0.25022       -1.68529       -5.83790
F         -1.41548        0.16548       -5.72102
F          0.38257        0.07992       -6.96206
F          0.78331        1.49792       -4.66894
F          1.96147       -0.37321       -4.78454
H          0.48299        0.79296        2.57160
H          4.65381        0.26366        1.69119
H          6.42914       -1.38237        2.20413
H          3.53586       -4.57291        1.92266
H          1.77312       -2.93508        1.43544
H         -0.69896        0.14701       -0.62097
H          0.20253       -1.37312       -0.65813
H          1.98829       -0.28132       -2.08275
H          1.10921        1.23863       -2.02949
H         -0.87664        0.10227       -3.14552
H          0.05740       -1.39839       -3.23621
