37

C          1.11054       -0.60840        0.41966
C          2.60407       -0.27434        0.38284
C          3.07796        0.53027        1.59780
C          4.57364        0.86328        1.58556
C          5.05239        1.63482        2.82810
C          6.55302        1.93622        2.86647
Ta         7.52134        2.61620        4.74394
C          6.96597        0.89002        6.03881
C          7.05224       -0.57173        5.53428
C          8.38677       -1.30513        5.66351
O          8.43857       -2.52899        5.84914
N          9.51390       -0.55010        5.55119
N          9.46021        2.21726        4.17854
H          0.79647       -1.18649       -0.46238
H          0.50025        0.30709        0.45358
H          0.86008       -1.20086        1.31290
H          2.83370        0.28833       -0.53838
H          3.18796       -1.20841        0.31871
H          2.84205       -0.03507        2.51754
H          2.49494        1.46661        1.66336
H          4.81552        1.44796        0.67957
H          5.15244       -0.07455        1.50266
H          4.76007        1.04744        3.71905
H          4.49735        2.58495        2.90701
H          6.82545        2.60711        2.03087
H          7.11111        0.98376        2.68178
H          6.91208        3.35204        6.25506
H          8.37704        4.13205        5.18359
H          6.40322        3.97080        4.31691
H          5.89073        1.14444        6.15299
H          7.36860        0.95279        7.06324
H          6.78310       -0.63599        4.46217
H          6.33443       -1.23326        6.04732
H          9.50118        0.44544        5.28448
H         10.39496       -1.05180        5.54987
H         10.24713        2.84966        4.28739
H          9.62106        1.62996        3.35613
