21

N          3.70069       -0.91388        2.14902
C          2.89886       -0.27814        1.06575
Al         2.90720       -1.43910       -0.59719
C          1.69766       -3.08330       -0.44229
C          0.20194       -2.75944       -0.47646
C         -0.82019       -3.89816       -0.45290
O         -2.04281       -3.71939       -0.47973
N         -0.27953       -5.15367       -0.40981
O          4.62613       -1.96351       -0.70515
H          4.04210       -0.22365        2.82299
H          4.53093       -1.34010        1.73185
H          3.27712        0.73111        0.79163
H          1.86977       -0.11517        1.43920
H          2.40085       -0.60442       -1.93474
H          1.96575       -3.61126        0.49167
H          1.96532       -3.74931       -1.28565
H         -0.04892       -2.16041       -1.36990
H         -0.07764       -2.11003        0.37170
H          0.72641       -5.24453       -0.30850
H         -0.89439       -5.95081       -0.31035
H          4.84216       -2.57760       -1.41695
