30

S          1.27578        0.06357       -0.47292
In         3.61364       -0.47737        0.49701
C          4.55795        1.50780        1.14316
C          5.52825        2.20638        0.17755
C          4.90289        2.78605       -1.09813
C          3.49127        2.47420        1.66655
C          4.57517       -1.65375       -1.21200
C          3.73185       -1.78256       -2.49213
C          3.57329       -0.50450       -3.32800
C          6.01518       -1.23057       -1.52367
H          0.89784        0.84136        0.56725
H          3.41122       -1.49039        1.96029
H          5.15890        1.17106        2.00754
H          6.33253        1.50867       -0.10854
H          6.03440        3.04555        0.70867
H          4.38532        2.00975       -1.67944
H          5.67004        3.24420       -1.74327
H          4.16258        3.56616       -0.86654
H          2.77280        2.76144        0.88267
H          3.93498        3.41488        2.06136
H          2.90314        2.02409        2.48106
H          4.61622       -2.66151       -0.76185
H          2.72624       -2.15178       -2.23161
H          4.18245       -2.56083       -3.14950
H          3.06455        0.28173       -2.75139
H          2.97088       -0.69796       -4.22985
H          4.54564       -0.11271       -3.66459
H          6.07686       -0.20219       -1.91233
H          6.48693       -1.88528       -2.28903
H          6.65503       -1.26682       -0.62831
