28

C          1.77234        0.68876        1.77892
C          2.99444        0.27660        0.95112
C          3.51978       -1.13253        1.27186
C          4.74399       -1.57945        0.46257
Al         5.52691       -3.39108        0.96233
C          4.08892       -4.83622        0.69253
C          4.60949       -6.22105        1.08340
C          3.68052       -7.41877        0.90035
O          3.94612       -8.57172        1.18739
O          2.46206       -7.10899        0.36695
N          7.00580       -3.90506       -0.06837
H          1.42562        1.70477        1.53313
H          2.00007        0.66538        2.85623
H          0.93023       -0.00083        1.61043
H          3.81164        1.00225        1.10883
H          2.74986        0.32954       -0.12445
H          2.69051       -1.85068        1.12622
H          3.75331       -1.17616        2.35269
H          5.54974       -0.82882        0.58462
H          4.49179       -1.56100       -0.61686
H          5.98355       -3.41903        2.54879
H          3.81433       -4.79939       -0.38027
H          3.19968       -4.55248        1.28641
H          4.92016       -6.23962        2.14210
H          5.53357       -6.45307        0.52626
H          2.50484       -6.12906        0.23693
H          7.08220       -3.60708       -1.04003
H          7.92741       -3.78907        0.34926
