22

C          1.06578       -0.04924       -0.29341
C          2.40117        0.70063       -0.36252
Nb         3.34928        0.67915       -2.33314
C          1.61026        1.43774       -3.53352
C          1.64070        1.58786       -5.03771
N          0.38506        2.18695       -5.58944
S          5.63004        1.50865       -1.91891
H          0.72629       -0.24204        0.74145
H          1.11768       -1.03227       -0.79172
H          0.26751        0.51572       -0.79801
H          3.17389        0.19978        0.25340
H          2.31752        1.73432        0.01461
H          4.33552       -0.80511       -2.39277
H          2.83591       -0.56546       -3.50714
H          3.75783        2.20365       -3.13503
H          1.37556        2.41943       -3.07285
H          0.80440        0.72230       -3.25554
H          1.86213        0.59932       -5.48411
H          2.46628        2.26065       -5.32309
H         -0.40214        1.62813       -5.24903
H          0.37640        2.08537       -6.60945
H          6.25028        0.43400       -1.35349
