26

F          1.24444       -0.81415        0.61062
B          2.23299       -0.15705       -0.08297
S          2.76661        1.35173        1.10791
O          1.58391        2.20858        1.23640
O          3.47193        0.93618        2.32247
C          4.08761        2.52797        0.27919
C          3.72900        3.20487       -1.07394
F          2.64529        3.99638       -0.95403
F          4.76422        3.98842       -1.48899
F          3.49546        2.29287       -2.03297
F          4.27254        3.52478        1.19291
F          5.25739        1.86361        0.12684
S          3.67007       -1.39296       -0.65749
O          3.01831       -2.56939       -1.24070
O          4.67955       -0.67486       -1.43916
C          4.78978       -2.15366        0.76175
C          4.06341       -2.99831        1.84928
C          4.94060       -3.42011        3.08324
F          6.05904       -4.06698        2.68653
F          5.29876       -2.36294        3.82966
F          4.23024       -4.26550        3.86977
F          3.01083       -2.29448        2.33862
F          3.60334       -4.15064        1.28838
F          5.67495       -2.95778        0.10717
F          5.48477       -1.15242        1.35714
H          1.95693        0.31905       -1.16166
