35

N          2.93195        3.18421       -0.75271
C          2.33614        1.87790       -1.05787
C          3.29982        0.98990       -1.84816
C          4.69288        0.81128       -1.23149
C          5.67569        0.01400       -2.06885
Nb         6.77923        1.88439       -2.32486
S          7.94614        0.86689       -0.31145
O          7.15564        0.38814        0.83201
O          8.87645       -0.11272       -0.90232
F          8.99020        1.95588        0.43960
C          7.55743        2.16207       -4.33639
C          8.26144        3.37717       -4.92776
C          8.53541        3.26860       -6.43100
N          9.24217        4.46318       -6.93674
H          2.21832        3.89290       -0.59203
H          3.53123        3.50619       -1.51668
H          1.39044        1.94913       -1.63493
H          2.08265        1.38136       -0.10312
H          3.41974        1.41335       -2.86171
H          2.83793       -0.00262       -1.98120
H          4.65205        0.42637       -0.20280
H          5.08233        1.87736       -1.03508
H          5.28952       -0.23761       -3.07395
H          6.09080       -0.87274       -1.58441
H          6.75098        3.10253       -1.05860
H          5.61948        3.23097       -2.64438
H          8.43953        2.40468       -2.08495
H          6.59818        1.96771       -4.87970
H          8.17865        1.24947       -4.46551
H          9.21471        3.54245       -4.40257
H          7.65214        4.28108       -4.74617
H          7.57475        3.07429       -6.95192
H          9.17893        2.39268       -6.61848
H          8.69314        5.29614       -6.71272
H          9.30871        4.43277       -7.95559
