37

S          1.46050        1.38154       -1.92753
C          2.97917        0.77016       -1.07195
C          3.44827        1.82178       -0.06088
C          4.67752        1.38030        0.73832
In         5.48495        2.97759        2.09750
C          4.01635        4.66729        1.97765
C          2.66401        4.46653        2.31116
C          1.69138        5.45332        2.10489
C          2.04488        6.69238        1.56354
C          3.38115        6.91904        1.23700
C          4.35197        5.92170        1.43622
C          3.78427        8.23476        0.62515
F          2.80192        9.18508        0.71903
F          4.89148        8.76493        1.20767
F          4.06760        8.11833       -0.70938
C          0.26042        5.21925        2.49547
F         -0.05525        3.90013        2.60202
F         -0.04618        5.78350        3.71101
F         -0.62370        5.76282        1.60402
C          7.34671        3.71942        0.96168
C          7.92579        4.90435        1.59620
O          7.85116        6.06268        1.21149
O          8.59494        4.67273        2.80043
H          1.25753        0.29970       -2.71630
H          3.75876        0.58092       -1.82353
H          2.74269       -0.17471       -0.56266
H          2.60792        2.04801        0.61613
H          3.65163        2.76284       -0.59994
H          5.50636        1.12987        0.05418
H          4.45574        0.46890        1.31663
H          6.00938        2.50417        3.72157
H          2.34063        3.51160        2.73181
H          1.29349        7.46257        1.39754
H          5.38713        6.14353        1.16009
H          7.03735        3.93391       -0.06600
H          8.01057        2.84529        0.99511
H          8.39571        3.75908        3.07330
