33

C          3.97789       -4.59751        0.51429
C          4.77883       -3.31843        0.81087
C          3.93870       -2.05587        1.03303
Al         5.01126       -0.38714        1.52313
C          6.12659        0.15430       -0.12360
C          5.33596        0.44110       -1.38418
O          4.30493        1.41268       -1.09880
C          3.42100        1.61749       -2.17007
C          2.32310        2.57083       -1.73727
O          2.81534        3.91085       -1.71437
C          1.91628        4.79814       -1.08512
N          3.89464        1.00517        2.12522
H          4.62502       -5.48171        0.37006
H          3.36809       -4.47441       -0.39549
H          3.28349       -4.81964        1.34077
H          5.49051       -3.15330       -0.01949
H          5.41134       -3.49565        1.69971
H          3.21800       -2.23787        1.85456
H          3.31435       -1.86694        0.13627
H          6.05309       -0.80774        2.74904
H          6.80903       -0.68826       -0.34226
H          6.77587        1.01668        0.11282
H          4.84707       -0.48679       -1.75168
H          5.94086        0.84356       -2.23170
H          2.94887        0.65915       -2.48016
H          3.94352        2.02967       -3.06161
H          1.97458        2.27400       -0.72992
H          1.46512        2.50001       -2.43893
H          2.38159        5.79309       -1.09008
H          1.71470        4.50088       -0.03824
H          0.94621        4.85517       -1.62105
H          4.12790        1.39195        3.03972
H          3.83246        1.79424        1.48144
