30

F         -0.63891        1.44475        0.20630
C          0.55732        1.93410       -0.25442
O          1.36828        2.38921        0.68886
C          1.77306        1.42071        1.73207
B          2.79521        2.15339        2.75055
C          3.73878        1.12793        3.60323
C          4.73440        0.20009        2.80671
C          5.70107        0.91334        1.79606
C          6.90661        0.03391        1.29485
F          6.49286       -1.16121        0.82766
F          7.53186        0.68366        0.28465
F          7.81215       -0.17530        2.26939
F          5.00124        1.27817        0.68809
F          6.24826        2.02447        2.35467
F          5.51683       -0.48729        3.70031
F          4.02897       -0.73363        2.09656
F          4.54747        1.78491        4.51305
F          2.99253        0.20861        4.34800
S          1.72924        3.22389        4.01982
O          0.29183        3.10476        3.74450
O          2.17486        3.18179        5.41525
C          2.11516        5.03448        3.51233
F          1.78447        5.28675        2.22702
F          1.40095        5.87351        4.30036
F          3.42689        5.33235        3.67317
F          1.09576        0.91053       -1.00961
F          0.27252        2.94383       -1.11385
H          2.24203        0.57102        1.21746
H          0.85725        1.06906        2.22842
H          3.49669        2.97506        2.20480
