21

Br         0.81791        0.11432       -0.10489
C          2.90083        0.07157        0.05534
C          3.40409        0.20693       -1.38732
C          4.92541        0.26253       -1.33833
O          5.46974        0.38444       -2.67474
C          6.87486        0.41228       -2.69087
C          7.29741        0.56600       -4.14593
O          8.72268        0.54610       -4.22829
C          9.17722        0.71746       -5.55314
H          2.99227       -1.00538        0.32216
H          3.04652        1.15681       -1.82193
H          3.11428       -0.59492       -2.10996
H          5.33836       -0.65604       -0.87232
H          5.25258        1.12134       -0.72307
H          7.30801       -0.52152       -2.27209
H          7.27684        1.25530       -2.08954
H          6.90241        1.51846       -4.55042
H          6.86397       -0.25759       -4.74625
H         10.27485        0.68436       -5.53183
H          8.85594        1.69069       -5.97500
H          8.80702       -0.08414       -6.22290
