28

Al         1.07073       -0.39017        0.54939
C          0.07418        1.36953        0.89415
C         -1.27376        1.25623        1.62467
C         -2.39682        0.59661        0.81714
C          1.00861        2.29724        1.68974
C          0.16113       -1.54077       -0.90714
C          0.95601       -2.82014       -1.17551
C          0.47361       -3.75356       -2.28411
O          0.98724       -4.81539       -2.58528
O         -0.62437       -3.30611       -2.96055
N          2.82879       -0.01438        0.01967
H          1.14601       -1.28542        1.93322
H         -0.12396        1.85621       -0.08490
H         -1.62272        2.26527        1.93830
H         -1.13184        0.69256        2.56574
H         -2.55617        1.12494       -0.13690
H         -3.35213        0.60249        1.36609
H         -2.15776       -0.44805        0.57365
H          1.23322        1.87072        2.68326
H          0.56482        3.29967        1.86697
H          1.97604        2.42907        1.18336
H          0.11189       -0.90158       -1.81148
H         -0.87418       -1.77222       -0.59688
H          1.02323       -3.44005       -0.26528
H          2.00681       -2.57962       -1.41600
H         -0.84162       -2.44702       -2.52089
H          3.05108        0.27892       -0.93040
H          3.56953       -0.64459        0.32086
