19

N          0.78782       -0.01153        0.03974
C          2.25264        0.18079       -0.02671
C          2.90522       -0.85076       -0.94362
C          4.42218       -0.67489       -1.08774
C          5.08906       -1.72502       -1.98507
B          6.66284       -1.51820       -2.24903
I          7.85303       -1.84281       -0.19505
Cl         7.31458       -2.76708       -3.50628
H          0.38278        0.60883        0.74311
H          0.59068       -0.96349        0.35754
H          2.74386        0.13819        0.96626
H          2.43572        1.19334       -0.42436
H          2.41967       -0.80381       -1.93352
H          2.69652       -1.86313       -0.54835
H          4.89399       -0.70338       -0.09034
H          4.63200        0.33305       -1.48950
H          4.60157       -1.70343       -2.98012
H          4.89249       -2.73459       -1.58074
H          7.01666       -0.40409       -2.56722
