31

F          1.47987        0.80051       -0.16529
C          2.47128       -0.05405        0.16454
C          2.63860       -0.20468        1.73213
C          1.54927       -0.71768        2.62737
S          2.03144       -1.10953        4.24815
O          3.37493       -0.61890        4.50347
O          0.97802       -0.89246        5.21849
C          2.24593       -3.02917        4.24242
C          3.16180       -3.54799        5.40351
C          3.06284       -5.09295        5.68461
F          3.25266       -5.81017        4.55865
F          4.02587       -5.44533        6.57119
F          1.87411       -5.43110        6.21603
F          4.46234       -3.29074        5.10965
F          2.83890       -2.92529        6.56934
F          1.02694       -3.61540        4.36077
F          2.79641       -3.42510        3.06485
S         -0.12718       -0.75206        2.25624
O         -0.34403       -0.81919        0.82049
O         -0.85138       -1.64307        3.13915
C         -0.82627        0.96306        2.68846
F         -0.19682        1.93345        1.98790
F         -2.14130        0.99773        2.36078
F         -0.71321        1.24873        3.99683
F          3.77134       -1.00462        1.82317
F          3.05558        1.06685        2.12608
C          2.32785       -1.41429       -0.65072
F          1.54944       -1.21564       -1.73725
F          3.54424       -1.81800       -1.09307
F          1.81385       -2.41890        0.07002
F          3.63189        0.52293       -0.28573
