44

Br         1.07293        1.94234        1.13190
C          0.85764        0.91294       -0.48772
S         -0.15088       -0.42284       -0.30349
O         -1.06272       -0.28713        0.82426
O         -0.64233       -0.90567       -1.59243
C          0.96243       -1.90828        0.26475
C          0.20926       -3.17838        0.77475
C          1.07382       -4.48502        0.90144
F          2.18151       -4.27543        1.64368
F          0.34513       -5.45461        1.51207
F          1.44919       -4.95703       -0.30303
F         -0.29959       -2.93438        2.01319
F         -0.81553       -3.48655       -0.06842
F          1.76088       -2.27457       -0.78705
F          1.78143       -1.48143        1.27180
C          1.69851        1.22023       -1.62185
C          1.67289        0.48263       -2.84513
C          2.49153        0.82101       -3.91176
C          3.39538        1.90995       -3.87297
C          3.41549        2.64224       -2.66978
C          2.60700        2.31573       -1.58596
Si         4.48105        2.32337       -5.32455
C          3.39520        2.82992       -6.81792
C          4.17748        3.20443       -8.08093
C          3.31268        3.58994       -9.26194
F          2.52197        4.67089       -9.00626
F          4.07318        3.91763      -10.35537
F          2.48380        2.58298       -9.65811
C          5.64330        3.76526       -4.92165
C          5.52207        0.82716       -5.85155
H          0.99221       -0.35938       -2.94160
H          2.41962        0.20449       -4.81427
H          4.08920        3.49763       -2.56249
H          2.67174        2.91271       -0.67752
H          2.76264        3.67310       -6.49913
H          2.70859        1.99565       -7.03319
H          4.80817        2.37101       -8.42627
H          4.84579        4.06038       -7.90098
H          5.08133        4.67830       -4.67713
H          6.30871        3.99453       -5.76692
H          6.27931        3.52407       -4.05793
H          4.87893       -0.03336       -6.08636
H          6.18754        0.52323       -5.03104
H          6.14700        1.03452       -6.73341
