41

N          1.29689        0.22361        0.55282
C          1.67427        0.49585       -0.84631
C          2.79610       -0.46460       -1.28668
C          2.33388       -1.90173       -1.40551
C          1.22467       -2.24793       -2.20220
C          0.83970       -3.57802       -2.35071
C          1.53759       -4.63054       -1.71741
C          2.64684       -4.27285       -0.92647
C          3.03552       -2.94052       -0.77428
Si         1.01559       -6.40548       -1.98549
C          0.91091       -6.74762       -3.86210
C          2.19356       -6.38270       -4.61887
C          2.13874       -6.68899       -6.09816
F          1.13308       -6.02842       -6.73836
F          3.29874       -6.34680       -6.73142
F          1.94458       -8.02290       -6.34882
C          2.26000       -7.61150       -1.21935
C         -0.69822       -6.76322       -1.26174
C          3.33854        0.06240       -2.71443
O          2.52034        0.13037       -3.65028
O          4.56509        0.37740       -2.66358
O          3.88299       -0.34753       -0.37162
H          0.75333        1.00719        0.91901
H          2.16843        0.20182        1.09078
H          2.05400        1.52338       -1.00447
H          0.79998        0.36647       -1.49942
H          0.69610       -1.46118       -2.74045
H         -0.02238       -3.80042       -2.98874
H          3.22746       -5.04871       -0.41828
H          3.89984       -2.67547       -0.16465
H          0.06691       -6.16913       -4.27033
H          0.66524       -7.81104       -4.01613
H          3.06572       -6.92737       -4.22632
H          2.41505       -5.30961       -4.51992
H          3.27095       -7.47441       -1.62854
H          1.95608       -8.65192       -1.40733
H          2.32427       -7.47320       -0.13054
H         -1.44683       -6.06984       -1.67105
H         -0.69030       -6.63205       -0.17027
H         -1.02746       -7.78991       -1.48158
H          4.57391        0.00545       -1.01616
