17

Cl         2.91677        0.05841       -1.52057
C          2.84110        0.25676        0.28447
C          1.51905        0.68184        0.68036
F          1.05622        1.81532        0.05404
F          0.38823       -0.23457        0.48505
F          1.44195        0.91696        2.04302
C          3.37546       -0.96342        0.97781
C          4.89186       -1.09851        0.83519
S          5.69186        0.47640        1.32344
C          7.37365       -0.18813        1.59047
H          2.92516       -1.92427        0.62493
H          3.13048       -0.86621        2.04771
H          5.15859       -1.31695       -0.21100
H          5.28510       -1.90725        1.47449
H          8.00765        0.65234        1.90436
H          7.79466       -0.61209        0.66568
H          7.39583       -0.95798        2.37803
