72

N          3.38727       -3.41957        2.15671
C          4.49640       -2.47490        1.84706
C          3.99540       -1.08779        1.47775
Ga         5.51724        0.17531        0.99802
C          4.87545        1.54605       -0.37970
C          4.93564        2.94181       -0.20097
C          4.53489        3.83695       -1.20240
C          4.04669        3.36761       -2.42775
C          3.97499        1.98846       -2.62664
C          4.38726        1.10035       -1.61955
C          3.44077        1.43439       -3.91733
F          3.21448        2.39344       -4.86352
F          4.28773        0.52433       -4.48611
F          2.24934        0.77809       -3.74800
C          4.64571        5.32328       -1.01259
F          4.93751        5.68529        0.26319
F          5.62382        5.87623       -1.80395
F          3.48927        5.98032       -1.35044
C          6.33589        1.09590        2.61073
C          7.52325        1.85052        2.50604
C          8.16338        2.39749        3.62194
C          7.65234        2.21169        4.92404
C          6.46157        1.46851        5.03935
C          5.82512        0.93335        3.91258
Si         8.55220        2.91939        6.41233
C          8.60706        4.82115        6.32006
C          7.23987        5.51581        6.24071
C          7.32684        7.04398        6.14677
C          5.96107        7.73452        6.08538
C          6.04523        9.26270        6.02438
C          4.67974        9.95499        5.98779
C          4.76463       11.48385        5.93886
C          3.39529       12.16738        5.93606
C          7.69761        2.39466        8.02052
C         10.34485        2.30125        6.45432
H          3.75316       -4.37453        2.21819
H          2.74149       -3.42014        1.36269
H          5.14956       -2.84766        1.03361
H          5.13044       -2.42111        2.74882
H          3.37302       -0.68057        2.29208
H          3.34008       -1.15855        0.58967
H          6.67630       -0.64813        0.24105
H          5.31052        3.34505        0.74276
H          3.73300        4.06053       -3.20726
H          4.33346        0.02616       -1.82138
H          7.97774        2.00230        1.52099
H          9.08720        2.96913        3.47439
H          6.02320        1.29411        6.02723
H          4.90573        0.35694        4.05989
H          9.21032        5.09428        5.43581
H          9.17177        5.19453        7.19397
H          6.63473        5.25023        7.12560
H          6.68359        5.12938        5.37050
H          7.91585        7.31729        5.25333
H          7.89380        7.43006        7.01335
H          5.36607        7.43947        6.96827
H          5.40418        7.36277        5.20807
H          6.62827        9.56005        5.13485
H          6.61518        9.63078        6.89645
H          4.09504        9.65302        6.87521
H          4.10948        9.59378        5.11412
H          5.32955       11.78597        5.04070
H          5.35349       11.84137        6.80100
H          2.79529       11.85164        5.06947
H          3.48713       13.26230        5.89702
H          2.82347       11.91266        6.84140
H          6.65814        2.74870        8.06816
H          8.23175        2.80202        8.89178
H          7.68056        1.29970        8.11867
H         10.87232        2.55925        5.52473
H         10.37666        1.20713        6.55804
H         10.90352        2.74155        7.29394
