22

N          1.95713        0.19407       -1.45520
C          2.51390        0.30302       -0.09242
Ga         2.93652       -1.48408        0.72335
S          5.24417       -2.04458       -0.08999
O          6.01349       -0.80423       -0.32096
O          5.92992       -3.12276        0.65272
C          5.13501       -2.73208       -1.97752
C          5.09238       -4.26102       -2.26078
C          3.87295       -5.07501       -1.70949
F          2.71437       -4.65040       -2.25367
F          4.03284       -6.38233       -2.05771
F          3.77958       -5.01294       -0.37696
F          5.07593       -4.46363       -3.62930
F          6.22456       -4.84246       -1.78388
F          4.03447       -2.16052       -2.55272
F          6.24086       -2.27153       -2.63257
H          1.39356        1.00978       -1.70177
H          1.34808       -0.62107       -1.53499
H          1.83648        0.81041        0.62683
H          3.44346        0.89294       -0.12322
H          2.05359       -2.67481        0.15418
H          3.30253       -1.50296        2.26058
