42

C          4.83615        0.91140        2.75843
C          4.40324        0.35187        1.40041
C          4.90332        1.17883        0.21182
C          4.46591        0.62095       -1.14791
C          4.91878        1.44385       -2.36251
C          6.44066        1.46043       -2.56788
C          6.91108        2.00777       -3.93646
C          6.30505        1.04611       -5.06828
O          6.66747       -0.16111       -4.99667
O          5.50925        1.57186       -5.89380
C          6.40745        3.45802       -4.11087
C          6.95387        4.20811       -5.32693
N          6.16387        5.44385       -5.55351
C          8.46453        2.01656       -3.98804
C          9.21018        0.73084       -3.61051
C         10.71473        0.84641       -3.87078
H          4.46601        0.29694        3.59289
H          4.45806        1.93510        2.90382
H          5.93328        0.95465        2.83642
H          3.30180        0.28958        1.36186
H          4.76707       -0.68455        1.29605
H          6.00378        1.23870        0.25322
H          4.53953        2.21792        0.31249
H          3.36369        0.54010       -1.15464
H          4.84830       -0.40998       -1.25428
H          4.53074        2.47240       -2.26360
H          4.45350        1.02388       -3.26789
H          6.80073        0.42277       -2.48961
H          6.92656        2.04360       -1.76070
H          6.63105        4.04500       -3.19851
H          5.31320        3.42117       -4.22248
H          6.92386        3.52105       -6.18884
H          7.99879        4.51694       -5.15912
H          5.20285        5.15502       -5.75676
H          6.49361        5.89651       -6.40925
H          8.82616        2.83646       -3.33214
H          8.77123        2.29433       -5.01143
H          8.76879       -0.09887       -4.18193
H          9.04814        0.50067       -2.54446
H         10.91735        1.01786       -4.93995
H         11.25231       -0.06776       -3.57465
H         11.16079        1.68915       -3.31601
