20

F          2.95065       -0.42481        1.50911
Ta         3.10423       -0.33155       -0.36493
C          4.74895       -0.54732       -1.72350
C          3.99481       -0.51151       -2.90945
C          4.57848       -0.66648       -4.17074
C          5.96175       -0.86076       -4.28677
C          6.72727       -0.87659       -3.10636
C          6.13595       -0.72285       -1.85012
C          6.60304       -1.07098       -5.63779
Br         3.95128        2.18978       -0.14371
H          1.79044       -1.42229       -0.85540
H          1.73091        0.48179       -1.13593
H          3.50385       -2.07266       -0.37820
H          2.90003       -0.34405       -2.85819
H          3.95850       -0.63005       -5.07198
H          7.81174       -1.01036       -3.18206
H          6.77241       -0.73523       -0.96036
H          6.14624       -0.42872       -6.40528
H          6.48933       -2.11304       -5.98064
H          7.68026       -0.85284       -5.60933
