23

C          0.89082       -0.07404        0.12523
C          2.42019       -0.07435        0.04655
C          3.00088        1.16174       -0.64819
C          4.53251        1.16820       -0.71437
C          5.11559        2.41530       -1.39120
B          6.71366        2.58987       -1.46651
S          7.54132        1.29825       -2.65332
O          6.77357        1.19566       -3.89139
O          8.98948        1.37528       -2.76040
F          7.28157       -0.18783       -1.92426
I          7.74945        2.53525        0.58679
H          0.50572       -0.97105        0.63350
H          0.44153       -0.04152       -0.87953
H          0.52261        0.80531        0.67644
H          2.76206       -0.97947       -0.48354
H          2.84116       -0.14503        1.06396
H          2.65284        2.07009       -0.12198
H          2.58812        1.22986       -1.67172
H          4.87374        0.26487       -1.24559
H          4.94069        1.08927        0.30804
H          4.72629        3.31429       -0.87827
H          4.73389        2.47490       -2.42753
H          7.09018        3.61156       -1.99807
