36

C          1.07323       -0.27061        0.09496
In         2.94488        0.93491       -0.16038
C          4.18823        0.45586        1.70001
C          3.59940        0.05008        2.91616
C          4.36012       -0.25753        4.05355
C          5.75762       -0.17833        4.01827
C          6.36775        0.21096        2.82674
C          5.59204        0.52002        1.69388
C          7.86514        0.28563        2.73660
F          8.48885        0.12549        3.94281
F          8.38824       -0.67449        1.91004
F          8.29890        1.48251        2.23678
C          3.71517       -0.64857        5.35238
F          2.38245       -0.89047        5.24566
F          4.27322       -1.77900        5.89623
F          3.85325        0.32279        6.31632
C          4.17172        0.13616       -1.88112
C          4.54169       -1.34970       -1.81263
C          5.34533       -1.86520       -3.02139
C          5.74151       -3.34375       -2.93154
H          0.70457       -0.24094        1.13189
H          1.25914       -1.32481       -0.16175
H          0.26692        0.09947       -0.55512
H          2.68604        2.69457       -0.24482
H          2.51205       -0.03696        2.98500
H          6.35346       -0.41578        4.89876
H          6.11480        0.81932        0.78009
H          5.09089        0.74261       -1.96593
H          3.59578        0.33214       -2.80301
H          3.62805       -1.96541       -1.71652
H          5.12607       -1.55369       -0.89647
H          6.25394       -1.24803       -3.13168
H          4.75467       -1.69639       -3.93888
H          6.36737       -3.53399       -2.04594
H          6.30992       -3.67187       -3.81612
H          4.85404       -3.99056       -2.84895
