23

C          0.88155       -0.07514        0.01597
C          2.41328       -0.03952       -0.01431
C          2.98773        1.12355       -0.82780
C          4.52201        1.16634       -0.88793
N          4.99563        2.26932       -1.62101
C          6.39951        2.26457       -1.67577
C          6.94693        3.42907       -2.50775
N          8.42985        3.49965       -2.43714
H          0.49426       -0.92128        0.60669
H          0.46740       -0.16237       -1.00144
H          0.47178        0.85031        0.45167
H          2.79281       -0.99178       -0.42548
H          2.79929        0.01462        1.01893
H          2.63759        2.08518       -0.41122
H          2.60654        1.08487       -1.86421
H          4.87079        0.15493       -1.29388
H          4.89898        1.13536        0.19357
H          6.85015        1.30391       -2.08561
H          6.90928        2.35384       -0.64380
H          6.44745        4.34767       -2.14472
H          6.65056        3.29168       -3.56071
H          8.68877        3.35981       -1.45526
H          8.74384        4.44273       -2.67407
