36

C          3.71633       -2.45994        6.85351
C          3.82068       -3.24425        5.54202
C          4.50826       -2.46217        4.41889
C          4.63984       -3.25121        3.11134
C          5.29692       -2.46637        1.95665
B          6.87484       -2.12335        2.19501
S          7.40378       -0.66275        1.02136
O          6.50124        0.49590        1.12600
O          8.85407       -0.39449        1.04425
C          7.14534       -1.18674       -0.82093
F          5.84114       -1.43630       -1.11213
F          7.56069       -0.19483       -1.64765
F          7.85012       -2.30551       -1.14394
C          7.88724       -3.40219        2.08385
C          9.28468       -3.16607        2.65182
S         10.27841       -4.71155        2.64968
C         11.84555       -4.08314        3.31646
H          3.21720       -3.04249        7.64285
H          3.14635       -1.52836        6.71353
H          4.71372       -2.17881        7.22463
H          2.81075       -3.54709        5.21273
H          4.37339       -4.18331        5.71993
H          5.50821       -2.14096        4.75271
H          3.94579       -1.53103        4.22404
H          3.63059       -3.59002        2.80831
H          5.21328       -4.17454        3.31366
H          4.71981       -1.53935        1.79668
H          5.17217       -3.05950        1.03272
H          7.07283       -1.47621        3.22328
H          7.96817       -3.77498        1.04834
H          7.41094       -4.22213        2.65362
H          9.22050       -2.80876        3.69181
H          9.82174       -2.40901        2.06403
H         12.54804       -4.92607        3.36198
H         11.71409       -3.67748        4.33046
H         12.26766       -3.30253        2.66768
