38

C          1.59804        1.42967        2.64961
C          2.94134        0.81312        2.23723
C          2.92527       -0.39533        1.26976
C          2.44188       -1.75201        1.82465
C          2.91803       -3.01489        0.93639
O          3.82053       -2.74579        0.10051
O          2.41440       -4.11290        1.25606
C          2.87466       -2.05249        3.26763
C          4.39791       -2.21397        3.41884
C          4.82492       -2.62578        4.83375
C          4.37273       -4.03125        5.23582
N          4.87936       -4.35648        6.56614
C          4.57874       -5.55194        7.19392
N          3.76316       -6.47621        6.81722
N          5.29389       -5.71704        8.39972
Br         0.39345       -1.78868        1.89659
C          2.30619       -0.03463       -0.08723
H          1.76324        2.31709        3.28119
H          0.97597        0.71832        3.20737
H          1.01367        1.74786        1.77422
H          3.50163        0.54563        3.14789
H          3.54440        1.59645        1.74347
H          3.98273       -0.62524        1.04828
H          2.38120       -2.99747        3.53252
H          2.50988       -1.27635        3.96191
H          4.90575       -1.26994        3.16604
H          4.75625       -2.95742        2.68956
H          4.44061       -1.90313        5.57450
H          5.92809       -2.58574        4.89846
H          4.71480       -4.76165        4.47848
H          3.27446       -4.08734        5.26053
H          5.81069       -3.99970        6.76438
H          3.41121       -6.29937        5.87265
H          5.28444       -4.88506        8.98686
H          4.92867       -6.52356        8.90083
H          1.22964        0.16861       -0.00438
H          2.45466       -0.86576       -0.78708
H          2.79899        0.85997       -0.50141
