38

C          0.61152       -0.25443       -0.63854
C          2.09128       -0.48868       -0.28878
C          3.07323       -0.35549       -1.46066
Al         5.01966       -0.82869       -1.05892
C          5.90247        0.52664        0.18951
C          5.34333        0.59848        1.61576
C          6.09111        1.53532        2.58108
C          5.49004        1.58411        3.99128
C          6.07874       -0.92700       -2.80140
C          7.55421       -1.30718       -2.62705
C          8.36153       -1.48521       -3.92532
C          9.83605       -1.83928       -3.69620
H         -0.05316       -0.36448        0.23662
H          0.27434       -0.96867       -1.40709
H          0.45967        0.75683       -1.04971
H          2.19170       -1.49378        0.15895
H          2.37330        0.21247        0.51673
H          3.01602        0.67168       -1.87400
H          2.74051       -1.01939       -2.28435
H          5.06044       -2.31811       -0.31836
H          5.86105        1.53332       -0.27279
H          6.98042        0.27329        0.24111
H          5.32755       -0.41560        2.05826
H          4.28348        0.91454        1.58662
H          6.10924        2.55218        2.15038
H          7.14702        1.21661        2.63862
H          4.44545        1.93306        3.96327
H          6.04713        2.25832        4.66103
H          5.48395        0.58475        4.45418
H          6.00889        0.03892       -3.34004
H          5.58565       -1.66872       -3.46050
H          7.62689       -2.24556       -2.04470
H          8.06379       -0.54512       -2.00768
H          8.29212       -0.55705       -4.51987
H          7.88216       -2.26906       -4.53803
H         10.34751       -1.04838       -3.12458
H         10.38641       -1.97521       -4.64080
H          9.93450       -2.77085       -3.11644
