14

F          3.46261        0.21942        1.78668
Ga         2.35602        0.13384        0.36696
S          3.82346        1.29522       -1.27253
O          4.36346        2.59239       -0.83579
O          4.76424        0.30544       -1.83196
C          2.80182        1.86152       -2.86615
C          1.91531        0.78542       -3.53578
F          2.65035       -0.23952       -4.00903
F          1.01904        0.29797       -2.64964
F          1.21247        1.30239       -4.58493
F          2.00017        2.91017       -2.53210
F          3.71242        2.29265       -3.78546
Cl         0.64980        1.49454        0.73755
H          2.03481       -1.29011       -0.16634
