17

O          0.98789       -0.00727       -0.09696
C          2.43987        0.26747        0.22114
C          2.96413       -0.87136        1.08590
C          4.49937       -1.02506        1.05096
C          5.17846        0.28090        1.47817
C          4.99086       -2.21941        1.88196
H          1.01441       -0.09822       -1.05388
H          2.39040        1.18548        0.84743
H          2.51803       -1.81160        0.71289
H          2.68127       -0.83183        2.18533
H          4.76234       -1.19293       -0.01029
H          4.90009        0.54457        2.51483
H          4.83334        1.08436        0.80754
H          6.27937        0.21539        1.42765
H          4.72363       -2.09855        2.94507
H          6.08739       -2.33617        1.82392
H          4.53024       -3.15895        1.53366
