21

N          2.03778       -0.76430        0.29647
C          2.47708        0.58934       -0.11211
In         3.47445        1.57903        1.62195
S          1.08010        1.52865        3.06270
O          0.25828        2.76139        3.04116
O          0.37028        0.25962        2.73265
C          1.37831        1.30284        4.97649
F          2.18282        2.29016        5.46141
F          0.21469        1.34543        5.67075
F          1.98160        0.11848        5.26415
C          4.67870        0.04793        2.69583
N          4.86382       -1.11509        1.79955
H          1.52954       -1.22652       -0.46308
H          1.37339       -0.68074        1.07339
H          1.66942        1.22258       -0.52450
H          3.24809        0.49318       -0.89443
H          3.88443        3.28782        1.60648
H          4.17345       -0.18896        3.64985
H          5.66009        0.48084        2.94959
H          3.98033       -1.33627        1.32418
H          5.12139       -1.94739        2.33683
