41

C          1.70141        2.59384       -1.82398
C          3.04548        2.00713       -1.38258
C          3.52590        2.50726       -0.01479
C          4.84616        1.87161        0.44080
C          5.29551        2.23405        1.87044
C          6.55312        1.49239        2.33864
In         7.28406        1.86543        4.44891
C          5.89435        3.24208        5.57733
C          6.39575        3.53826        6.95777
O          5.46578        4.39482        7.70855
C          5.92195        4.65201        9.01270
C          4.87437        5.42160        9.79485
O          3.80471        4.55569       10.16954
C          2.76881        5.24072       10.83571
O          8.96835        3.14720        4.22058
H          1.38269        2.19549       -2.79929
H          1.75298        3.68983       -1.91305
H          0.90943        2.36179       -1.09533
H          3.81268        2.23251       -2.14336
H          2.96926        0.90646       -1.35117
H          2.74440        2.29736        0.73795
H          3.62858        3.60710       -0.04242
H          5.64853        2.14194       -0.26960
H          4.75010        0.77211        0.37788
H          4.45274        2.02750        2.55581
H          5.45614        3.32598        1.92735
H          7.40594        1.76633        1.69238
H          6.40489        0.40466        2.21660
H          7.78697        0.38682        5.32584
H          4.89413        2.78303        5.61897
H          5.82136        4.16712        4.98451
H          7.37571        4.05312        6.92286
H          6.52765        2.61090        7.55033
H          6.85823        5.25524        9.00188
H          6.15388        3.70893        9.55325
H          4.48753        6.25455        9.17480
H          5.33766        5.85737       10.70571
H          1.97962        4.50844       11.05395
H          2.34182        6.05099       10.21213
H          3.11506        5.68819       11.79062
H          9.70182        2.64351        3.83880
