35

C          0.90426        0.22661        0.52973
C          2.27878       -0.34601        0.14789
C          3.30474       -0.37460        1.28503
Ga         5.08056       -1.23052        0.72575
C          6.05653        0.01167       -0.58293
C          6.30805        1.38193       -0.37262
C          6.90719        2.20006       -1.33979
C          7.28843        1.68295       -2.58640
C          7.04339        0.32186       -2.82309
C          6.44534       -0.48235       -1.84582
C          7.95134        2.55266       -3.62886
C          6.14122       -1.88563        2.35913
C          6.28674       -0.94815        3.55741
N          7.06688        0.28728        3.31220
H          0.19454        0.21378       -0.31597
H          0.99431        1.26862        0.87667
H          0.45504       -0.35209        1.35326
H          2.68329        0.23526       -0.69937
H          2.14293       -1.36985       -0.24298
H          2.89700       -0.95318        2.13498
H          3.46682        0.65154        1.66456
H          4.76405       -2.55434       -0.16494
H          6.01114        1.84964        0.57395
H          7.07281        3.26274       -1.12894
H          7.31512       -0.10905       -3.79384
H          6.25305       -1.53541       -2.07781
H          7.66497        3.60838       -3.51239
H          7.67808        2.23750       -4.64722
H          9.05163        2.50528       -3.56136
H          7.14243       -2.22793        2.03619
H          5.60111       -2.79834        2.67497
H          6.76886       -1.44971        4.42079
H          5.29000       -0.63446        3.91321
H          6.63640        0.76598        2.51459
H          7.98269        0.00335        2.95048
