35

N          2.17803       -0.03072        1.23479
C          3.19574        0.31180        0.25215
Nb         3.34345        2.12233       -0.90854
S          2.10297        2.69714       -2.98679
O          2.80399        3.77763       -3.72210
O          1.69100        1.50925       -3.77693
C          0.35741        3.55605       -2.67704
C         -0.55339        3.57851       -3.95240
C         -1.74522        4.60560       -3.90646
F         -2.48335        4.46360       -2.78498
F         -1.31737        5.88102       -3.97806
F         -2.56597        4.39233       -4.96859
F          0.16541        3.89417       -5.06271
F         -1.11958        2.35275       -4.13069
F         -0.34894        2.92657       -1.69607
F          0.55959        4.84842       -2.27925
C          4.93021        1.75593       -2.36772
C          5.31898        0.39465       -2.95017
C          4.60155        0.07041       -4.26017
N          5.07375       -1.22122       -4.80045
H          2.14437       -1.03539        1.42365
H          1.26582        0.24207        0.86659
H          3.25101       -0.37244       -0.63524
H          4.20594        0.29106        0.72812
H          4.01233        3.33707        0.23471
H          1.63837        1.68655       -0.82270
H          2.37406        3.57741       -0.74483
H          5.63518        2.02216       -1.53163
H          5.02888        2.55748       -3.11622
H          5.12659       -0.42220       -2.23329
H          6.41178        0.36535       -3.14351
H          4.74206        0.91723       -4.96022
H          3.51950        0.00122       -4.08593
H          6.04277       -1.12813       -5.11420
H          4.53096       -1.46064       -5.63174
