35

C          2.98393        0.76250        0.40340
C          3.66488       -0.09382       -0.66773
C          2.78147       -0.43193       -1.89131
B          2.33664        0.87569       -2.75574
S          3.72810        1.39830       -4.00422
O          4.99346        1.46278       -3.26302
O          3.70541        0.68942       -5.28500
C          3.52561        3.27459       -4.60534
C          3.10991        4.34377       -3.55126
C          3.34329        5.84184       -3.96984
F          4.65515        6.14067       -4.04557
F          2.77089        6.11894       -5.15846
F          2.78892        6.65734       -3.03919
F          1.78437        4.21904       -3.28283
F          3.81415        4.15889       -2.39824
F          4.77390        3.59319       -5.06767
F          2.66752        3.33194       -5.64766
S          0.68117        0.57603       -3.73854
O          0.43349        1.56025       -4.79375
O          0.38734       -0.83604       -4.00172
C         -0.64677        1.04337       -2.42009
F         -0.51733        0.32340       -1.27616
F         -0.60173        2.35349       -2.08914
F         -1.87247        0.78682       -2.93205
C          3.41291       -1.57319       -2.71069
H          3.64717        0.91842        1.26753
H          2.06228        0.28351        0.77040
H          2.70604        1.75188        0.01568
H          3.97918       -1.04896       -0.20695
H          4.58654        0.40037       -1.01051
H          1.82769       -0.82423       -1.48963
H          2.09653        1.87609       -2.12294
H          4.40259       -1.28732       -3.09613
H          2.78277       -1.84947       -3.56593
H          3.54839       -2.46929       -2.08218
