31

N          4.21154       -2.54404        1.01632
C          4.04056       -1.16538        0.51792
C          4.77812       -0.97002       -0.80489
C          4.61811        0.46198       -1.32818
C          5.40468        0.87714       -2.59202
C          4.98900        0.15867       -3.89016
C          3.45278       -0.03360       -4.28828
C          2.33472        1.07772       -4.42688
C          2.48806        2.16083       -5.59324
F          3.70441        2.19973       -6.13962
F          1.62150        1.84715       -6.60542
F          2.14039        3.37730       -5.15095
F          1.19714        0.35293       -4.74418
F          2.05837        1.66300       -3.24686
F          3.46333       -0.66011       -5.51227
F          2.91872       -0.92154       -3.38662
F          5.62363        0.68626       -4.97204
F          5.40352       -1.18599       -3.85230
C          5.24994        2.46739       -2.75132
O          4.38430        2.83234       -3.57973
O          5.99522        3.13166       -2.00193
S          7.22472        0.67873       -2.33734
H          3.78131       -2.63982        1.93766
H          5.20782       -2.73120        1.14846
H          4.38453       -0.39408        1.23640
H          2.96114       -0.99847        0.36708
H          4.41140       -1.71058       -1.52837
H          5.85123       -1.17413       -0.64702
H          4.96097        1.16607       -0.55435
H          3.55071        0.67818       -1.49429
H          7.27612       -0.66872       -2.51833
