30

S          1.32997       -0.12435        1.25924
C          3.05172       -0.11370        0.56873
C          3.57095       -1.54561        0.41639
C          4.96866       -1.61662       -0.20906
Al         5.70510       -3.52848       -0.35879
C          4.33337       -4.65614       -1.38549
C          3.71233       -4.08038       -2.67033
C          4.74398       -3.99280       -3.80367
C          2.47619       -4.86528       -3.14664
C          7.56944       -3.49136       -1.16932
H          1.15508        1.21688        1.32811
H          3.69660        0.45785        1.25088
H          3.03017        0.39180       -0.40681
H          2.85051       -2.11577       -0.19653
H          3.57409       -2.03057        1.40811
H          5.67558       -1.02293        0.40225
H          4.94997       -1.13248       -1.20512
H          5.79720       -4.14796        1.17713
H          3.52052       -4.85349       -0.65913
H          4.75595       -5.65635       -1.61378
H          3.37329       -3.04748       -2.45915
H          5.11513       -4.99974       -4.06011
H          5.61326       -3.39309       -3.50101
H          4.31509       -3.54927       -4.71797
H          2.75349       -5.90570       -3.38717
H          2.01761       -4.42049       -4.04834
H          1.70933       -4.90308       -2.35822
H          8.24394       -2.85921       -0.56440
H          7.61357       -3.10208       -2.20165
H          8.02018       -4.49925       -1.19099
