18

Ga         1.11796       -0.12914       -0.16760
C          0.08714        0.02678        1.57461
C         -0.83433       -1.17279        1.85046
C         -0.11224       -2.51392        2.04562
C          1.01657        0.35321        2.74849
F          2.07261        1.46350       -0.37887
O          2.41141       -1.50540       -0.02153
H          0.25030       -0.30865       -1.51440
H         -0.56629        0.90325        1.40614
H         -1.54530       -1.27564        1.01152
H         -1.45722       -0.97672        2.75157
H          0.54206       -2.73666        1.18922
H         -0.83072       -3.34055        2.17007
H          0.52809       -2.49729        2.94068
H          1.76369       -0.43912        2.91094
H          0.46525        0.48857        3.70302
H          1.57786        1.27787        2.54877
H          2.91985       -1.51450       -0.84527
