14

N          1.38088        0.15506       -0.80393
N          1.77764        0.14591        0.59871
S          2.48412        1.46375        1.08779
O          2.17136        2.67983        0.31526
O          2.48321        1.53671        2.54674
C          4.38420        1.36174        0.72161
C          5.21096        0.34275        1.55498
F          5.31523        0.71194        2.84692
F          4.68562       -0.89670        1.50263
F          6.49228        0.25456        1.06580
F          4.54877        1.00168       -0.60328
F          5.00537        2.57828        0.88082
H          2.18842       -0.16187       -1.35516
H          1.23022        1.13378       -1.08806
