23

C          0.92330        0.05722       -0.02709
O          2.33465        0.06787       -0.02445
C          2.86840       -0.32700        1.23826
C          4.38921       -0.30012        1.16950
O          4.85900       -0.69906        2.43239
C          6.29455       -0.73410        2.51721
C          6.71496       -1.19254        3.90785
N          8.15177       -1.22402        3.94949
C          8.69329       -1.57731        5.07598
F          8.38766       -0.78242        6.28334
F          8.36626       -2.90969        5.62730
F         10.07930       -1.58762        5.06260
H          0.59393        0.37168       -1.02637
H          0.50591        0.75597        0.72491
H          0.51958       -0.95299        0.18320
H          2.52737       -1.34749        1.50055
H          2.52042        0.35729        2.03657
H          4.73746        0.72106        0.90644
H          4.74226       -0.98251        0.36772
H          6.70912        0.27187        2.31074
H          6.69971       -1.42791        1.75498
H          6.24291       -2.18320        4.09532
H          6.26406       -0.49338        4.64735
