68

C          4.81147        1.34419        0.68768
As         3.04428        0.35367        0.28776
C          3.66417       -0.08142       -1.67302
C          4.23070       -1.32112       -1.98550
C          4.71233       -1.59710       -3.26815
C          4.65416       -0.62658       -4.29199
C          4.07373        0.61986       -3.97101
C          3.58360        0.87805       -2.68627
Si         5.28301       -1.00868       -6.01058
C          3.90507       -1.84691       -7.03880
C          2.65383       -0.97246       -7.19618
C          1.57284       -1.63996       -8.02670
C          0.23050       -0.84620       -8.22419
C          0.24497        0.59402       -8.86702
C          0.80317        0.84490      -10.32794
C          0.13518        0.07590      -11.52825
C          0.49844        0.65293      -12.95024
F          1.83122        0.76232      -13.10532
F          0.02752       -0.19706      -13.88609
F         -0.06503        1.85595      -13.15471
F          0.53128       -1.21794      -11.51454
F         -1.21750        0.12926      -11.41536
F          0.62556        2.18012      -10.55408
F          2.13588        0.59206      -10.33662
F         -1.04079        1.03882       -8.84844
F          0.97954        1.41246       -8.06170
F         -0.62533       -1.60434       -8.97100
F         -0.32796       -0.67313       -6.99258
F          2.03797       -1.95778       -9.28628
F          1.18201       -2.82725       -7.45082
C          5.81466        0.57051       -6.91187
C          6.73996       -2.21461       -5.96475
C          1.26440       -0.72803       -0.02685
C          0.46899       -0.89282        1.25956
C         -0.28830        0.39968        1.60499
C         -1.09761        0.31434        2.87734
C         -1.86042        1.62196        3.25448
F         -1.00273        2.64922        3.44301
F         -2.72670        1.97626        2.27312
F         -2.57599        1.46633        4.39395
F         -2.06990       -0.67039        2.79901
F         -0.31888        0.00544        3.96979
H          4.66950        2.42372        0.52907
H          5.61616        0.97110        0.03873
H          5.05205        1.14332        1.74132
H          2.55706        0.68222        1.80160
H          3.73726       -1.04364        0.77980
H          2.35507        1.71604       -0.29544
H          4.30903       -2.07785       -1.19418
H          5.15233       -2.57975       -3.47236
H          4.01631        1.40670       -4.73152
H          3.13530        1.85263       -2.45357
H          3.64042       -2.79132       -6.53845
H          4.30882       -2.11134       -8.02943
H          2.90607       -0.01967       -7.68229
H          2.22101       -0.72735       -6.21423
H          4.99895        1.30388       -6.98471
H          6.15785        0.34706       -7.93296
H          6.64081        1.05748       -6.37441
H          6.46288       -3.16248       -5.48211
H          7.57873       -1.78694       -5.39738
H          7.09565       -2.44575       -6.97964
H          1.59637       -1.70190       -0.41421
H          0.69420       -0.20233       -0.81024
H          1.17031       -1.11936        2.08519
H         -0.24632       -1.73247        1.20971
H         -0.97991        0.66549        0.79049
H          0.43486        1.22287        1.71277
