41

C          1.56403       -0.54889       -0.59273
C          2.96839       -0.17601       -0.10782
C          3.00316        0.95239        0.91436
As         2.44906        0.13744        2.83997
C          2.87219        1.97647        3.82844
C          2.47702        1.91134        5.28975
C          2.85334        3.13375        6.14703
C          2.25689        4.43784        5.62027
N          2.51677        5.54168        6.53916
C          2.18632        6.84593        6.22962
N          1.76616        7.32482        5.10685
N          2.34936        7.72049        7.32564
C          0.40861        0.62275        2.67315
C          4.37801        1.59495        1.00702
H          1.59674       -1.34692       -1.35199
H          1.05776        0.32271       -1.03909
H          0.94813       -0.90497        0.24407
H          3.59624        0.08382       -0.98569
H          3.43781       -1.07487        0.34325
H          2.22906        1.70522        0.69021
H          2.12416       -0.53047        4.27034
H          4.03211       -0.29529        3.00911
H          2.15499       -1.30252        2.14687
H          2.33392        2.76177        3.27379
H          3.95667        2.12774        3.71576
H          2.93861        1.01691        5.74546
H          1.38734        1.74498        5.37427
H          3.95063        3.23876        6.19089
H          2.50434        2.97731        7.18771
H          1.17012        4.30752        5.44768
H          2.70970        4.67772        4.64687
H          2.43327        5.30214        7.52358
H          1.57617        6.57449        4.43755
H          3.22336        7.57405        7.82716
H          2.26819        8.68206        7.00314
H          0.09645        1.25950        3.51412
H         -0.12130       -0.33930        2.72755
H          0.16781        1.12476        1.72479
H          5.06348        0.94996        1.58993
H          4.34884        2.57347        1.50720
H          4.83745        1.74327        0.00992
