52

C          5.95578       -3.02808        4.12864
C          6.13817       -1.90599        3.09697
C          4.91525       -1.64023        2.23216
P          5.11942       -0.10033        1.06808
C          5.45888        1.46832       -0.03602
C          6.23670        1.35660       -1.19841
C          6.55694        2.46965       -1.97808
C          6.10433        3.76292       -1.62625
C          5.32791        3.87527       -0.45500
C          5.02052        2.75081        0.32014
Si         6.53372        5.23877       -2.68742
C          5.97965        4.91958       -4.48917
C          4.48706        4.59995       -4.62268
C          4.03759        4.34817       -6.04393
F          4.68754        3.30138       -6.62681
F          2.70175        4.06469       -6.11229
F          4.24049        5.43094       -6.85781
C          5.67475        6.80940       -2.06398
C          8.40201        5.55009       -2.74830
C          3.19457       -0.12155        0.63201
C          2.28277        0.60762        1.59755
N          0.84319        0.32517        1.34183
H          6.86439       -3.18862        4.73340
H          5.70851       -3.98186        3.63568
H          5.12953       -2.79738        4.81975
H          6.99863       -2.14338        2.44798
H          6.41316       -0.97038        3.61778
H          4.03431       -1.45675        2.87257
H          4.69035       -2.51379        1.59379
H          4.89430        0.81156        2.24127
H          6.59841       -0.08562        1.33000
H          5.35182       -0.95625       -0.14148
H          6.59599        0.36117       -1.48685
H          7.17259        2.33272       -2.87570
H          4.95676        4.85685       -0.14137
H          4.43394        2.87052        1.23771
H          6.57244        4.07790       -4.88162
H          6.23827        5.79835       -5.10208
H          3.86079        5.42239       -4.24489
H          4.22639        3.70346       -4.04036
H          4.58156        6.69672       -2.03462
H          5.90999        7.66557       -2.71370
H          6.00595        7.06042       -1.04625
H          8.93454        4.65229       -3.09373
H          8.78433        5.79428       -1.74702
H          8.65638        6.37973       -3.42522
H          2.90715       -1.18507        0.57716
H          3.09939        0.30174       -0.38326
H          2.50538        1.69137        1.56150
H          2.49963        0.28547        2.63083
H          0.65177        0.50910        0.35404
H          0.26087        0.98464        1.86674
