30

C          2.05325       -2.51463        0.58067
C          3.08753       -1.40665        0.35189
C          3.51570       -1.24622       -1.11765
C          4.54563       -0.13634       -1.35838
In         5.28395        0.15941       -3.47207
C          3.97904       -1.23156       -4.80214
F          2.60182       -1.18724       -4.57428
F          4.09025       -1.01693       -6.17693
F          4.28789       -2.59024       -4.66046
C          7.36285       -0.70307       -3.71825
C          7.88311       -1.54381       -2.54356
C          7.04385       -2.79824       -2.30841
S          7.50913       -3.77459       -0.82356
H          1.75591       -2.58893        1.63853
H          2.44936       -3.49589        0.27682
H          1.14201       -2.33414       -0.01054
H          3.98342       -1.60549        0.96569
H          2.68355       -0.44369        0.71104
H          2.61529       -1.06749       -1.73062
H          3.90486       -2.22043       -1.46760
H          5.43667       -0.31873       -0.73083
H          4.13035        0.82941       -1.02357
H          5.11445        1.81167       -4.09899
H          8.04841        0.14137       -3.89353
H          7.36958       -1.30380       -4.64348
H          7.88538       -0.95183       -1.61320
H          8.93443       -1.86638       -2.69754
H          7.05785       -3.46095       -3.18464
H          5.99274       -2.53286       -2.12586
H          8.79547       -4.00829       -1.17863
