47

S          3.56253       -0.56694        3.54788
C          5.37529       -0.31523        3.64423
C          6.09533       -0.24898        2.29530
C          5.66352        0.90555        1.39261
Nb         5.86245        3.03584        1.76671
S          4.51547        4.97312        2.53625
O          3.92673        5.13398        3.87491
O          5.45626        6.03358        2.08325
C          2.93822        5.44045        1.41448
C          1.81107        4.37064        1.21229
C          0.76204        4.19653        2.36907
C         -0.23809        2.99283        2.18363
F         -0.90800        3.06647        1.01396
F          0.38745        1.80693        2.24719
F         -1.15078        3.03899        3.18462
F          1.38009        3.99975        3.55225
F         -0.00732        5.32101        2.44750
F          1.08522        4.68881        0.08810
F          2.39676        3.15678        0.98400
F          2.37875        6.56854        1.94673
F          3.38073        5.75665        0.16469
C          8.04234        3.26897        1.99861
C          8.84855        2.63607        0.85404
C         10.33985        3.02413        0.93278
C         11.20890        2.38604       -0.13057
C         12.71281        2.79481       -0.07046
F         12.85212        4.13259       -0.22357
F         13.25440        2.45259        1.12358
F         13.43220        2.18844       -1.04041
F         11.18579        1.00950       -0.03977
F         10.77662        2.70839       -1.39844
H          3.61466       -1.82864        3.05433
H          5.80039       -1.10403        4.28010
H          5.46664        0.64630        4.16866
H          5.97169       -1.22593        1.78758
H          7.17592       -0.16373        2.51323
H          4.59812        0.80370        1.10858
H          6.24651        0.87414        0.43987
H          4.85446        2.46739        3.07392
H          5.12284        3.79686        0.32590
H          6.14539        3.80753        3.30812
H          8.39211        2.89184        2.97439
H          8.18821        4.36471        2.01891
H          8.46193        2.94936       -0.13067
H          8.76644        1.53795        0.88608
H         10.74804        2.73560        1.91328
H         10.44648        4.11581        0.84648
