22

F          1.28796       -0.07550       -0.78425
C          2.66104       -0.06405       -0.64882
C          3.19335       -0.50516       -2.06772
F          2.63997       -1.70172       -2.41736
F          2.86451        0.38586       -3.02234
F          4.53009       -0.66039       -2.08257
C          3.15136        1.24936       -0.09152
S          4.61919        1.27656        0.82044
O          5.42077        0.11258        0.48283
O          5.22354        2.59068        0.88445
C          4.19317        0.94503        2.65189
F          3.64067        2.02376        3.24286
F          3.35095       -0.09897        2.81133
F          5.34232        0.65588        3.31230
S          2.26726        2.69137       -0.44115
O          3.03449        3.88856       -0.16623
O          1.54349        2.54793       -1.69266
C          0.84885        2.84613        0.82613
F          1.31660        3.00790        2.08178
F          0.11795        3.94436        0.51026
F          0.01607        1.78428        0.82600
F          2.96672       -1.12227        0.18152
