39

N          4.98302       -0.50196       -3.80450
C          3.97703        0.57861       -3.61401
C          3.51218        0.70830       -2.15603
Ta         4.81986        1.17007       -0.33031
C          6.06454       -0.51417        0.33349
C          5.60788       -1.84749        0.15125
C          6.39370       -2.95987        0.45974
C          7.68662       -2.81219        0.98787
C          8.16427       -1.51472        1.17910
C          7.37882       -0.39846        0.85078
C          9.53103       -1.31032        1.76733
F         10.34363       -2.40241        1.63156
F         10.20123       -0.26221        1.19939
F          9.49049       -1.04001        3.11186
C          5.87356       -4.35460        0.26548
F          4.72833       -4.41233       -0.46756
F          6.77956       -5.16798       -0.37090
F          5.59724       -4.98178        1.45575
C          5.96341        3.05301       -0.81183
C          6.62502        2.58237       -2.10041
N          6.57471        1.09564       -1.98311
H          4.97920       -0.83379       -4.77015
H          4.72455       -1.30110       -3.22120
H          3.10650        0.41452       -4.28524
H          4.44273        1.52113       -3.95643
H          2.90862       -0.18730       -1.90648
H          2.76608        1.52388       -2.12238
H          3.09714        1.04370        0.11083
H          4.48714        0.59225        1.32340
H          4.33116        2.39276        0.86557
H          4.60016       -2.02214       -0.23562
H          8.30061       -3.67952        1.22355
H          7.81469        0.59276        1.01190
H          6.69732        3.17820        0.00781
H          5.41597        4.00171       -0.89398
H          7.65692        2.94013       -2.30535
H          6.02074        2.86584       -2.97591
H          7.42504        0.71471       -1.56668
H          6.36055        0.56406       -2.84132
