38

C          0.61772        0.50691        0.10265
C          2.03214        0.15745       -0.37762
C          2.75588       -0.88104        0.48456
Sb         2.82927       -2.97384       -0.55273
C          3.04895       -4.02905        1.46786
C          4.29898       -4.88285        1.67793
C          5.52258       -4.02922        2.04053
C          4.07553       -5.97345        2.74406
C          0.51381       -3.09372       -0.16485
O          0.06721       -4.50068       -0.04405
C         -1.10583       -4.71744        0.51962
F         -1.21636       -4.25453        1.81395
F         -2.17754       -4.15921       -0.14806
F         -1.33832       -6.05875        0.56978
C          4.16972       -0.46896        0.87000
H          0.13107        1.23981       -0.56059
H          0.63638        0.93459        1.11805
H         -0.03020       -0.38116        0.13681
H          2.62634        1.09025       -0.41572
H          1.97809       -0.19633       -1.42849
H          2.17230       -1.08938        1.39711
H          4.61871       -2.85443       -0.81856
H          2.77384       -4.57010       -1.35154
H          2.47645       -2.13600       -2.12275
H          2.14582       -4.65693        1.49369
H          2.94943       -3.26757        2.26044
H          4.52601       -5.40281        0.72533
H          5.34391       -3.48313        2.98270
H          5.73106       -3.29108        1.25459
H          6.42337       -4.64874        2.17874
H          3.83956       -5.51929        3.72099
H          4.96851       -6.60927        2.87650
H          3.23146       -6.62406        2.47180
H         -0.04789       -2.63365       -0.99226
H          0.28203       -2.58394        0.78134
H          4.84328       -0.45797       -0.00464
H          4.61390       -1.16167        1.59993
H          4.20142        0.54437        1.31759
