22

C          0.74122       -0.08625       -0.06560
C          2.27121       -0.10096        0.03367
C          2.87421       -0.39340        1.42526
C          2.39032        0.62503        2.45496
F          2.37401        1.92829        1.94446
F          1.11075        0.41387        2.87838
F          3.15926        0.71084        3.57458
C          2.50884       -1.90749        1.91685
O          2.18266       -2.68764        0.98903
O          2.66747       -2.11797        3.13997
C          4.42525       -0.39151        1.35436
C          5.13327        0.91557        0.97046
H          0.43440        0.01086       -1.11901
H          0.29401        0.75043        0.48892
H          0.33165       -1.02746        0.32335
H          2.66791        0.85062       -0.35829
H          2.64452       -0.91423       -0.60482
H          4.68795       -1.17500        0.62582
H          4.79499       -0.73854        2.32984
H          4.80539        1.29630       -0.00790
H          6.22074        0.75062        0.91113
H          4.95800        1.70892        1.71013
