23

C          0.90485        0.00999        0.16362
C          2.40853       -0.06848        0.09646
C          2.94565       -1.46325       -0.30417
C          4.47864       -1.54956       -0.35587
C          5.00780       -2.96010       -0.59854
N          6.47128       -2.98537       -0.57766
C          7.20141       -4.14413       -0.73482
N          6.77048       -5.32182       -1.05630
N          8.57916       -3.96166       -0.50211
H          0.52424        1.03631        0.02395
H          0.49963       -0.39392        1.11075
H          2.97953        0.19144        1.04214
H          2.78234        0.65456       -0.65654
H          2.49947       -1.73565       -1.27611
H          2.56032       -2.20438        0.42052
H          4.88408       -1.17157        0.60305
H          4.86406       -0.87682       -1.14223
H          4.66603       -3.32797       -1.58084
H          4.59151       -3.64647        0.16480
H          6.90139       -2.27136        0.00506
H          5.74723       -5.33427       -1.07389
H          8.95243       -3.10288       -0.91155
H          9.09575       -4.77813       -0.82821
