60

C          2.73256       -0.26790        1.69716
C          3.76111        0.12302        0.63484
C          3.15807        0.71184       -0.64652
Ta         2.34272        2.73062       -0.94213
C          2.66242        4.64269        0.28822
C          1.87569        5.21705        1.36406
C          1.74404        6.56733        1.53594
C          2.46534        7.49979        0.69994
C          3.25112        7.03801       -0.32188
C          3.33990        5.63343       -0.59153
C          3.99608        5.03965       -1.65271
O          3.89606        3.73693       -1.80540
O          4.83353        5.65241       -2.55283
C          0.26046        3.39163       -0.74597
C         -0.75072        2.88275        0.09740
C         -2.03780        3.42793        0.13622
C         -2.39490        4.53657       -0.65846
C         -1.39523        5.04564       -1.51924
C         -0.12385        4.47936       -1.56729
Si        -4.02370        5.41697       -0.44198
C         -3.87613        6.67043        0.99671
C         -2.66454        7.60282        0.87732
C         -2.55933        8.61222        1.99746
F         -2.43961        8.02996        3.22531
F         -1.47782        9.43197        1.84666
F         -3.65462        9.43494        2.06806
C         -4.50946        6.36840       -2.00862
C         -5.42549        4.22764        0.01282
C          4.14222        0.58216       -1.83006
H          3.21531       -0.66740        2.60246
H          2.04920       -1.04145        1.31075
H          2.12413        0.60305        1.97797
H          4.35895       -0.77787        0.38003
H          4.48017        0.84078        1.06853
H          2.24309        0.12783       -0.90279
H          3.36362        3.82761        0.68409
H          1.93260        2.32500        0.74781
H          1.55454        2.18268       -2.49032
H          1.36514        4.52500        2.03814
H          1.10455        6.95826        2.33070
H          2.37949        8.57131        0.88924
H          3.78640        7.75755       -0.95494
H          4.89780        6.58451       -2.28557
H         -0.51490        2.05021        0.76698
H         -2.77162        2.98964        0.82198
H         -1.61464        5.90173       -2.16616
H          0.60299        4.91662       -2.26350
H         -3.80256        6.09415        1.93296
H         -4.80600        7.25963        1.05924
H         -2.69073        8.18597       -0.05602
H         -1.72374        7.03171        0.86857
H         -3.74895        7.10809       -2.29646
H         -5.45938        6.90403       -1.86313
H         -4.63274        5.67881       -2.85585
H         -5.17488        3.64343        0.90982
H         -5.61561        3.51694       -0.80383
H         -6.35902        4.77234        0.21773
H          5.10364        1.06559       -1.59799
H          3.76084        1.04211       -2.75674
H          4.35322       -0.47879       -2.06517
