57

C          8.71316       -5.45083       -2.43731
C          8.38218       -4.06391       -1.88021
C          8.82637       -3.87166       -0.42641
C          8.49756       -2.48749        0.14137
C          8.94053       -2.29532        1.59565
C          8.60557       -0.91328        2.16576
C          9.04165       -0.72400        3.62490
C          8.68463        0.65404        4.20407
Si         9.17817        0.95235        6.02054
C          8.51554        2.61906        6.58965
C          7.21841        3.04823        6.24242
C          6.70906        4.26664        6.69114
C          7.45962        5.12267        7.52371
C          8.75262        4.69135        7.87589
C          9.26730        3.47640        7.41536
B          6.79315        6.49957        7.98846
S          5.48001        6.27815        9.40670
O          5.04140        7.53834       10.00412
O          4.46990        5.32973        8.92642
C          6.26274        5.34668       10.88965
F          6.73730        4.13077       10.53774
F          7.27036        6.04923       11.44567
F          5.30480        5.16390       11.83034
S          8.03105        7.92164        8.41987
O          7.42183        9.23337        8.49564
O          9.06680        7.57011        9.37911
F          8.83844        7.94286        6.96101
C          8.45354       -0.43357        7.09333
C         11.06574        0.90837        6.17618
H          8.38226       -5.55928       -3.48004
H          8.22444       -6.24202       -1.84856
H          9.79658       -5.64227       -2.40950
H          7.29556       -3.88710       -1.95243
H          8.85636       -3.29094       -2.50862
H          9.91449       -4.04766       -0.35317
H          8.35281       -4.64622        0.20293
H          7.40954       -2.31308        0.06699
H          8.97073       -1.71365       -0.48869
H         10.02918       -2.46706        1.66981
H          8.46911       -3.07179        2.22414
H          7.51739       -0.74072        2.09066
H          9.07818       -0.13397        1.54237
H         10.13120       -0.89063        3.69365
H          8.57830       -1.51727        4.23706
H          7.59635        0.81732        4.11665
H          9.14938        1.44994        3.59633
H          6.58714        2.42345        5.60270
H          5.69921        4.56377        6.40124
H          9.37145        5.32206        8.51671
H         10.28196        3.19631        7.71221
H          6.05486        7.00557        7.17231
H          7.35661       -0.45435        7.01847
H          8.70640       -0.26714        8.15022
H          8.83537       -1.42397        6.80392
H         11.53317        1.70762        5.58339
H         11.46781       -0.05422        5.82710
H         11.38302        1.03775        7.22080
