36

C          5.41960       -3.32051        2.54994
S          5.98668       -2.06242        1.37236
C          4.43497       -1.81795        0.42946
C          4.69833       -1.16796       -0.92909
Ga         5.61517       -2.27630       -2.34864
S          4.14777       -4.30243       -2.18289
O          4.56321       -5.23434       -1.10693
O          2.70572       -3.97514       -2.25823
C          4.39574       -5.39705       -3.77006
F          5.70284       -5.74559       -3.92952
F          3.67466       -6.54131       -3.68716
F          4.01176       -4.74794       -4.89758
C          7.49022       -2.99777       -2.16726
C          8.50859       -2.06334       -2.82868
C          9.92478       -2.67047       -2.86861
C         10.96243       -1.77087       -3.50549
C         12.39353       -2.38321       -3.59815
F         12.86886       -2.68573       -2.36635
F         12.38378       -3.52138       -4.33162
F         13.26467       -1.52634       -4.17759
F         10.61641       -1.42996       -4.79590
F         11.10335       -0.58863       -2.80743
H          6.27020       -3.56924        3.19768
H          5.09651       -4.22339        2.01430
H          4.59783       -2.94322        3.17550
H          3.75934       -1.20848        1.05527
H          3.97441       -2.80946        0.30825
H          5.26500       -0.22886       -0.80146
H          3.72865       -0.88007       -1.36515
H          5.30052       -1.77976       -3.83032
H          7.51320       -3.98550       -2.65482
H          7.72887       -3.15266       -1.10491
H          8.55129       -1.10162       -2.29223
H          8.19712       -1.82901       -3.85916
H          9.90909       -3.61547       -3.43319
H         10.26787       -2.90689       -1.84982
