43

N          1.39311       -3.98773       -3.50599
C          2.81627       -3.68767       -3.76175
C          3.49709       -3.12028       -2.51813
C          4.99398       -2.82377       -2.71751
C          5.68600       -2.17956       -1.51247
In         7.89975       -1.84575       -1.78946
C          8.73474       -0.64698        0.01865
C          7.84145       -0.18572        1.17861
C          7.41237       -1.26684        2.16335
O          6.99334       -1.05067        3.28576
O          7.52617       -2.53872        1.70458
C          8.89687       -3.89230       -1.85300
C          8.28836       -4.96911       -0.94967
C          8.95184       -6.35184       -1.14533
C          8.37863       -7.45644       -0.28089
C          9.03803       -8.85609       -0.48299
F          8.89977       -9.27514       -1.76499
F         10.36391       -8.81101       -0.20327
F          8.48090       -9.79311        0.31757
F          8.51046       -7.17124        1.06069
F          7.03303       -7.64112       -0.52090
H          0.92614       -4.25672       -4.37401
H          0.92413       -3.13839       -3.18345
H          2.96864       -2.98083       -4.60337
H          3.30888       -4.63137       -4.05047
H          3.36406       -3.82496       -1.68051
H          2.98414       -2.18653       -2.21967
H          5.11027       -2.17400       -3.60414
H          5.49846       -3.77169       -2.98188
H          5.54580       -2.81266       -0.61968
H          5.20428       -1.21409       -1.27961
H          8.31471       -0.90107       -3.24276
H          9.06597        0.24473       -0.53581
H          9.65661       -1.10518        0.41627
H          6.90180        0.25335        0.79809
H          8.29570        0.60237        1.80574
H          7.87239       -2.45693        0.78098
H          9.96751       -3.76283       -1.61737
H          8.85114       -4.22255       -2.90565
H          7.20841       -5.06961       -1.14200
H          8.38108       -4.69119        0.11224
H         10.02886       -6.28519       -0.92708
H          8.85320       -6.66748       -2.19550
