52

C          0.16920       -0.39724       -5.01949
C          0.03296        0.90212       -4.22180
C          0.47678        0.79126       -2.75902
Ga         2.43053        0.23459       -2.47540
C          3.68107        0.92812       -3.93559
C          3.68195        2.28636       -4.32198
C          4.56028        2.80086       -5.27550
C          5.49987        1.95413       -5.88751
C          5.52856        0.59725       -5.53433
C          4.62862        0.10916       -4.58349
C          6.44423        2.50280       -6.91273
C          7.61710        3.42819       -6.40382
C          8.64953        2.88405       -5.34426
C          9.62671        1.68351       -5.68322
C         10.59133        1.82249       -6.92030
C         11.80045        0.80976       -6.90753
F         11.38315       -0.45042       -6.68745
F         12.40763        0.85325       -8.11322
F         12.70862        1.13913       -5.97190
F          9.89714        1.59818       -8.06065
F         11.12945        3.06967       -6.96464
F         10.41357        1.54148       -4.57387
F          8.90463        0.54868       -5.83240
F          9.44332        3.94386       -5.00511
F          7.97279        2.49751       -4.23535
F          8.34331        3.86261       -7.48007
F          7.05819        4.52668       -5.81890
F          7.04072        1.50637       -7.65351
F          5.77532        3.31374       -7.81809
C          2.70571       -1.80463       -2.43712
O          1.87002       -2.37907       -1.34458
C          2.06999       -3.64726       -1.04003
F          3.33659       -3.93099       -0.57329
F          1.20471       -4.01259       -0.05450
F          1.87269       -4.52738       -2.08400
C          0.17322        2.08934       -1.99971
H         -0.21093       -0.28811       -6.04688
H         -0.38987       -1.21503       -4.53787
H          1.22124       -0.71153       -5.08281
H         -1.02456        1.24119       -4.27161
H          0.61726        1.69321       -4.72662
H         -0.11255       -0.01966       -2.29011
H          2.94713        0.82639       -1.07509
H          2.97086        2.97644       -3.85830
H          4.51554        3.85543       -5.55306
H          6.24857       -0.07241       -6.00623
H          4.67926       -0.95591       -4.33853
H          3.75303       -2.05852       -2.20942
H          2.41680       -2.32575       -3.36335
H          0.74101        2.94162       -2.41108
H          0.44856        2.01153       -0.93783
H         -0.89887        2.36787       -2.05414
