30

S          1.04019       -0.60231       -0.08778
Al         3.00479        0.29037        0.71132
C          4.07897        1.09214       -0.92737
C          3.67495        2.37872       -1.69355
C          3.64749        3.74822       -0.91533
C          4.94906        4.24810       -0.19209
F          6.02642        4.17953       -0.99776
F          4.77467        5.55505        0.14777
F          5.19253        3.56928        0.93576
F          3.33679        4.71718       -1.83735
F          2.65823        3.73080        0.01263
F          4.48956        2.58655       -2.78747
F          2.40074        2.22329       -2.17320
F          5.43393        1.31926       -0.58186
F          4.13850        0.11968       -1.93668
C          4.04384       -1.30572        1.40370
C          5.56008       -1.12924        1.60888
C          5.95768       -0.02796        2.60128
C          3.35862       -1.84750        2.67197
H          0.38859        0.58178       -0.14350
H          2.74322        1.49125        1.77035
H          3.91825       -2.07240        0.61472
H          6.03538       -0.91245        0.63949
H          6.00196       -2.08656        1.96041
H          5.58654        0.95411        2.27409
H          7.05219        0.04265        2.70081
H          5.54632       -0.21621        3.60440
H          3.37775       -1.11675        3.49693
H          3.84664       -2.77001        3.04727
H          2.29966       -2.08315        2.48717
