27

C          2.61710        0.42258        1.65352
Ta         2.62182       -0.21489       -0.45117
C          4.26997       -0.65062       -1.99071
C          3.75700       -1.46456       -3.17988
C          4.76518       -1.69277       -4.34260
C          5.60500       -2.94492       -4.22765
C          6.67668       -3.11171       -5.35150
F          6.09911       -3.12438       -6.57955
F          7.56962       -2.09363       -5.32691
F          7.36955       -4.26742       -5.21628
F          6.29772       -3.02418       -3.04226
F          4.81921       -4.08288       -4.29908
N          2.93697       -2.20173       -0.17547
H          2.20962        1.44461        1.74518
H          3.59282        0.40441        2.16306
H          1.93487       -0.26304        2.20002
H          2.21364        0.72737       -1.95091
H          0.81208       -0.18354       -0.65528
H          3.75198        1.18599       -0.43677
H          5.08571       -1.18843       -1.46840
H          4.70079        0.28883       -2.36402
H          2.89841       -0.92544       -3.61591
H          3.35361       -2.43990       -2.86040
H          5.44756       -0.83208       -4.41161
H          4.24360       -1.77719       -5.31005
H          2.33428       -2.72557        0.46195
H          3.68077       -2.80537       -0.51440
