37

N          1.68908        2.11647        2.83555
C          2.02842        1.37609        1.74015
O          1.35760        1.40619        0.70341
C          3.29693        0.54517        1.87955
C          4.53039        1.36566        1.43602
Ta         6.15153        2.26191        2.59752
C          4.88631        2.45637        4.51956
C          3.98902        1.58153        5.24901
C          2.95433        2.05449        6.01576
C          2.76858        3.47268        6.21786
C          3.63305        4.36349        5.63417
C          4.68734        3.91062        4.78146
C          5.61583        4.70390        4.12828
O          6.50570        4.11933        3.36196
O          5.77690        6.06055        4.25489
C          8.20324        1.52092        2.29045
O          8.88352        0.86207        3.44205
C         10.16469        0.57541        3.29105
F         10.97591        1.66864        3.07008
F         10.62438       -0.02433        4.42312
F         10.43936       -0.28557        2.24907
H          0.93759        2.78897        2.74111
H          2.27858        2.14789        3.66390
H          3.14831       -0.32972        1.22756
H          3.41459        0.18481        2.91236
H          4.24362        2.03133        0.60442
H          5.28109        0.67564        0.97250
H          5.97703        2.11226        4.69927
H          6.48442        2.81055        0.88629
H          6.20827        0.63611        3.34473
H          4.16040        0.50494        5.17051
H          2.27189        1.35521        6.50353
H          1.95860        3.82647        6.85772
H          3.49845        5.43622        5.82184
H          5.12518        6.36442        4.90822
H          8.80143        2.41422        2.02988
H          8.24971        0.82867        1.43436
