60

C          1.84522       -0.17949        0.95233
C          3.33508        0.01998        0.66274
C          3.69609        1.45271        0.25969
C          5.19392        1.65654        0.00872
C          5.65382        3.10425       -0.08660
Nb         6.99103        2.64627        1.61399
C          8.24608        0.96596        0.81508
C          8.58307       -0.30353        1.33269
C          9.37499       -1.21803        0.63607
C          9.86513       -0.89295       -0.63810
C          9.54775        0.35522       -1.19711
C          8.76026        1.25243       -0.47525
C         10.72470       -1.85332       -1.40091
C         12.26742       -1.52694       -1.48731
C         13.11225       -1.35004       -0.16601
C         13.31222       -2.52880        0.86765
C         13.97762       -3.90056        0.44384
C         15.42570       -3.89513       -0.17267
F         16.28190       -3.19575        0.59449
F         15.85929       -5.17387       -0.23523
F         15.43856       -3.39063       -1.41549
F         14.05950       -4.62796        1.59572
F         13.16559       -4.55932       -0.41544
F         14.08935       -2.01001        1.86035
F         12.11019       -2.85115        1.40460
F         14.36670       -0.97105       -0.56005
F         12.57638       -0.32906        0.54902
F         12.88239       -2.48653       -2.24066
F         12.40786       -0.34031       -2.14740
F         10.63117       -3.13650       -0.91113
F         10.34015       -1.91569       -2.73105
C          8.48213        4.27085        1.81290
C          9.19822        3.47969        2.92610
C         10.69810        3.34999        2.70622
O         11.50919        4.18144        3.12217
N         11.09309        2.24434        2.00172
H          1.62222       -1.21570        1.24758
H          1.22941        0.05393        0.06948
H          1.50942        0.47769        1.76879
H          3.65291       -0.67769       -0.13194
H          3.92507       -0.24678        1.55551
H          3.39483        2.14424        1.06425
H          3.13420        1.74637       -0.64545
H          5.52570        1.06208       -0.86071
H          5.69745        1.10908        0.88547
H          4.84407        3.83157        0.04689
H          6.19996        3.32637       -1.01756
H          6.68492        3.23826        3.23947
H          5.39460        2.64181        2.35109
H          6.75298        1.28886        2.75623
H          8.20067       -0.57949        2.31751
H          9.60687       -2.18850        1.07486
H          9.91022        0.61792       -2.19203
H          8.54115        2.21609       -0.94911
H          8.25330        5.29740        2.11743
H          9.08672        4.30507        0.88735
H          8.76529        2.43965        3.05541
H          9.04370        3.96746        3.89395
H         10.41051        1.62920        1.56933
H         12.05590        2.19747        1.69134
