35

C          0.69235        3.76729       -1.22983
O          2.07558        4.02341       -1.30196
C          2.75528        3.08965       -2.13906
C          4.25053        3.34135       -2.10774
O          4.79243        2.85224       -0.90683
C          6.25706        2.98535       -0.83674
C          6.81765        4.37855       -0.70865
Ga         8.85441        4.31090       -0.44228
C          9.97361        5.51501       -1.67635
C         10.32221        4.86789       -3.02389
C          9.11585        4.51077       -3.90432
C          9.38358        6.92007       -1.82533
O          9.13320        4.92181        1.34751
H          0.25242        4.52712       -0.56968
H          0.47958        2.76317       -0.81130
H          0.20565        3.83375       -2.22521
H          2.38509        3.18826       -3.18180
H          2.54759        2.05580       -1.79717
H          4.43856        4.42543       -2.23714
H          4.70401        2.82436       -2.98443
H          6.67096        2.46865       -1.72701
H          6.51577        2.37695        0.04196
H          6.40253        4.88137        0.17848
H          6.58968        4.99297       -1.59447
H          9.40787        2.77993       -0.54603
H         10.91893        5.61031       -1.10987
H         10.89551        3.94379       -2.83545
H         10.99429        5.53212       -3.61284
H          8.46273        3.78556       -3.39615
H          9.43172        4.06860       -4.86298
H          8.50631        5.39755       -4.13574
H          8.38926        6.90817       -2.30148
H         10.02337        7.59306       -2.43620
H          9.25476        7.39186       -0.83926
H          9.91927        4.46800        1.68285
