43

C          3.55292       -1.87893       -0.68755
C          2.52955       -0.76437       -0.45308
P          2.42832        0.19278        1.29810
C          2.28712       -1.49439        2.30252
C          3.15116       -1.87886        3.34034
C          2.93343       -3.03742        4.09797
C          1.83093       -3.86764        3.84938
C          0.95729       -3.49173        2.81730
C          1.18488       -2.33146        2.06964
C          1.57362       -5.10295        4.68035
C          4.39216        0.30501        1.45588
C          4.98682        1.28947        0.46697
O          5.12157        2.58344        1.08811
C          5.32845        3.61338        0.15331
C          5.37254        4.94762        0.87128
O          6.63357        5.12629        1.51732
C          6.65008        6.27322        2.33791
H          3.35366       -2.44516       -1.61635
H          3.54761       -2.60780        0.13832
H          4.58022       -1.49047       -0.76851
H          1.51143       -1.16417       -0.59030
H          2.64878        0.03164       -1.20886
H          2.27460        0.90426        2.60335
H          0.94098        0.15912        1.17248
H          2.44110        1.50898        0.58117
H          4.01825       -1.25678        3.57790
H          3.63381       -3.30451        4.89767
H          0.08786       -4.12213        2.59725
H          0.47574       -2.05302        1.28259
H          2.50937       -5.52065        5.08073
H          1.07754       -5.88806        4.09009
H          0.92056       -4.88702        5.54306
H          4.85853       -0.68287        1.32948
H          4.62161        0.65434        2.47483
H          4.31560        1.39956       -0.41182
H          5.98665        0.97771        0.09156
H          4.49846        3.63925       -0.58456
H          6.27365        3.46901       -0.41502
H          4.55528        4.97748        1.61698
H          5.20873        5.76989        0.14356
H          7.64504        6.33258        2.79974
H          5.88630        6.21549        3.13799
H          6.46975        7.20140        1.75725
