21

F          0.77088        1.96712        0.36906
C          2.05056        2.46128        0.36684
O          2.64408        2.43980        1.55769
C          2.79832        1.11280        2.19051
In         3.81425        1.37918        4.14775
S          4.13511       -1.23630        4.65357
O          4.22049       -1.66192        6.06315
O          3.26977       -2.01916        3.74503
C          5.90478       -1.64916        3.97982
F          6.05124       -1.17561        2.71149
F          6.87262       -1.07962        4.73935
F          6.12416       -2.98258        3.95433
C          2.32179        2.01769        5.73383
F          1.89038        3.32130        5.51323
F          1.16579        1.26805        5.77900
F          2.80235        2.02051        7.02461
F          2.71591        1.74886       -0.60089
F          1.98178        3.74640       -0.06217
H          3.39082        0.47177        1.52501
H          1.80332        0.66923        2.32413
H          5.38479        2.11639        4.28708
