62

C          4.36078        1.06984        0.33606
C          3.51564       -0.18125        0.58949
C          4.21906       -1.50101        0.23843
C          5.47887       -1.80324        1.05817
Nb         5.38679       -2.61206        3.06045
S          3.33761       -2.26787        4.40689
O          3.13503       -1.21004        5.41069
O          2.36676       -2.32370        3.27935
C          2.70841       -3.81438        5.46139
C          3.62624       -4.36357        6.59949
C          4.02667       -3.38942        7.76624
C          4.62129       -4.11393        9.03509
F          5.59626       -4.98425        8.70577
F          5.15196       -3.18151        9.85889
F          3.67140       -4.77587        9.72597
F          4.97697       -2.53174        7.32917
F          2.94843       -2.68934        8.20316
F          2.99412       -5.44361        7.17941
F          4.78064       -4.82243        6.03600
F          1.50692       -3.46765        6.00804
F          2.48385       -4.87739        4.63401
C          7.49975       -2.98277        3.49709
C          8.56707       -2.06278        3.42555
C          9.88850       -2.44988        3.64785
C         10.21896       -3.78326        3.97698
C          9.15974       -4.70693        4.05320
C          7.83717       -4.31756        3.80892
Si        11.98595       -4.27720        4.36090
C         12.40304       -3.74234        6.14713
C         13.81933       -4.10631        6.60663
C         14.12873       -3.71347        8.03611
F         13.30192       -4.31565        8.93516
F         15.40594       -4.06589        8.38545
F         14.02816       -2.37038        8.24414
C         12.20899       -6.15214        4.22834
C         13.19671       -3.42165        3.18155
H          3.78135        1.98495        0.52770
H          4.71714        1.11199       -0.70672
H          5.24262        1.10122        0.99172
H          2.58951       -0.11832       -0.00619
H          3.20597       -0.21731        1.64434
H          4.46524       -1.48953       -0.84295
H          3.49268       -2.31995        0.37210
H          6.22058       -0.98676        1.00206
H          5.98991       -2.71016        0.64067
H          5.84886       -1.74906        4.50621
H          4.64778       -1.03755        3.21216
H          4.53294       -4.17864        3.19520
H          8.36052       -1.01062        3.20543
H         10.67748       -1.69400        3.57456
H          9.36256       -5.75305        4.30230
H          7.05240       -5.07904        3.87719
H         11.65846       -4.20378        6.81457
H         12.24842       -2.65441        6.22208
H         14.58439       -3.61866        5.98349
H         13.99631       -5.19078        6.54537
H         11.57816       -6.68715        4.95256
H         13.25285       -6.44516        4.41398
H         11.93775       -6.50650        3.22380
H         13.11893       -2.32719        3.24986
H         12.98504       -3.70388        2.14056
H         14.23961       -3.69744        3.39807
