14

N          3.36728       -1.04419        0.91940
C          2.87060       -0.23935       -0.22061
Ta         3.05911       -0.98772       -2.31634
F          3.93879       -0.08382       -3.74633
N          4.79835       -1.86508       -1.57747
H          3.72581       -0.45856        1.67655
H          4.13374       -1.63604        0.58922
H          3.34923        0.76557       -0.29685
H          1.79770       -0.02738       -0.07152
H          1.40256       -1.39755       -2.88097
H          2.84863       -2.73643       -2.68679
H          1.92484        0.44856       -2.32115
H          5.08469       -2.83235       -1.69452
H          5.51470       -1.37589       -1.03618
