27

N          4.06854        0.67351       -3.20550
C          3.99448        0.44485       -1.74460
C          4.43546       -0.96775       -1.38157
C          4.31558       -1.28053        0.11347
C          4.94647       -2.63438        0.49662
C          6.45955       -2.63534        0.44388
C          7.02727       -2.13225        1.75299
C          8.52873       -1.85499        1.73886
N          9.01387       -1.35160        3.05291
O          6.89693       -4.06586        0.31674
H          3.58276        1.53809       -3.45213
H          3.56373       -0.07930       -3.67940
H          2.97851        0.62912       -1.33500
H          4.66798        1.17011       -1.25627
H          5.48562       -1.13460       -1.67159
H          3.82020       -1.69344       -1.95012
H          3.24962       -1.25675        0.41560
H          4.81683       -0.47961        0.68640
H          4.57859       -3.40526       -0.20254
H          4.52828       -2.93045        1.50871
H          6.81607       -2.84860        2.59699
H          6.51015       -1.18734        2.01642
H          8.73288       -1.15994        0.90142
H          9.06127       -2.79485        1.52025
H          8.42221       -0.56103        3.32503
H          9.95407       -0.96368        2.94160
H          7.43699       -4.05218       -0.47991
