70

C         -0.55435        6.28401        2.63378
C          0.89879        6.74595        2.76869
C          1.83034        6.13943        1.71467
C          3.28273        6.61096        1.83393
C          4.21592        6.02292        0.77113
C          5.66132        6.51735        0.88466
C          6.59879        5.94446       -0.18502
C          8.04503        6.44918       -0.07420
Si         9.22894        5.81978       -1.43028
C          8.61562        6.34101       -3.12294
C          8.46133        7.70366       -3.44058
C          8.00765        8.11740       -4.69696
C          7.68892        7.19750       -5.71388
C          7.84202        5.83056       -5.39358
C          8.28526        5.41764       -4.13807
C          7.17270        7.60312       -7.08122
C          7.98736        6.87747       -8.30566
O          8.86696        6.04015       -8.00124
O          7.60353        7.26355       -9.43842
C          5.70674        7.09987       -7.24485
C          4.67552        7.69057       -6.27369
C          3.23660        7.22076       -6.53499
C          3.02304        5.71910       -6.34559
N          1.59806        5.37283       -6.50704
C          7.23109        9.12530       -7.34672
C          8.64154        9.69003       -7.55996
C         10.93660        6.56615       -1.07702
C          9.35589        3.93276       -1.30585
H         -1.19812        6.73896        3.40009
H         -0.63503        5.19126        2.73624
H         -0.96607        6.55274        1.64944
H          1.27529        6.49237        3.77441
H          0.94322        7.84604        2.69817
H          1.44920        6.38662        0.70817
H          1.79520        5.03781        1.78794
H          3.66707        6.35712        2.83810
H          3.31128        7.71321        1.76998
H          3.82667        6.26836       -0.23225
H          4.19981        4.92062        0.83992
H          6.05606        6.26902        1.88655
H          5.67462        7.61987        0.81942
H          6.20233        6.19187       -1.18414
H          6.58191        4.84224       -0.11997
H          8.46559        6.18079        0.91215
H          8.05230        7.55318       -0.11287
H          8.69628        8.47109       -2.69477
H          7.90085        9.18698       -4.88209
H          7.63918        5.08890       -6.16433
H          8.39027        4.34496       -3.95086
H          5.71189        6.00225       -7.15092
H          5.41960        7.32070       -8.28566
H          4.69259        8.78990       -6.33981
H          4.95615        7.44249       -5.23508
H          2.92568        7.49424       -7.55693
H          2.55214        7.75482       -5.84914
H          3.44064        5.42047       -5.36226
H          3.58612        5.16225       -7.10898
H          1.05148        5.83030       -5.77405
H          1.46336        4.36893       -6.37772
H          6.72430        9.68455       -6.54023
H          6.65302        9.29965       -8.26598
H          9.30485        9.49328       -6.70562
H          8.60589       10.78006       -7.71602
H          9.09534        9.23127       -8.44851
H         10.90692        7.66296       -1.15001
H         11.67401        6.20856       -1.80975
H         11.29561        6.30229       -0.07074
H          8.38703        3.44550       -1.48500
H          9.70357        3.63403       -0.30559
H         10.06836        3.53430       -2.04216
