39

N          1.33784       -2.18711        0.47274
C          2.64670       -1.72795        0.17321
N          3.06641       -1.32204       -0.98060
N          3.46029       -1.72333        1.27778
C          4.81049       -1.15678        1.25531
C          5.41269       -1.17963        2.65898
C          6.85008       -0.64972        2.72796
C          7.44739       -0.60705        4.13953
B          9.02140       -0.07977        4.17688
C          9.64111       -0.20497        5.69308
C         10.20592        0.93243        6.31424
C         10.74050        0.92448        7.60449
C         10.73016       -0.25030        8.36358
C         10.17710       -1.40091        7.79989
C          9.65508       -1.38198        6.49015
C          9.14904       -2.70755        5.99297
O          9.62551       -3.39945        5.12486
O          8.05673       -3.18744        6.70804
N          9.18625        1.38573        3.65901
H          0.80805       -2.40690       -0.36568
H          1.32719       -2.97579        1.11779
H          2.35759       -1.49260       -1.69957
H          2.98568       -1.65718        2.17301
H          4.78637       -0.12754        0.85657
H          5.42248       -1.74751        0.55682
H          5.38778       -2.21265        3.04801
H          4.77398       -0.57719        3.33336
H          6.88480        0.36190        2.28382
H          7.49467       -1.28082        2.08967
H          7.34017       -1.61648        4.57781
H          6.81620        0.05907        4.76809
H          9.68951       -0.81844        3.43890
H         10.22897        1.84582        5.71249
H         11.17214        1.83878        8.02338
H         11.14993       -0.27692        9.37176
H         10.17536       -2.33666        8.36746
H          7.78236       -2.46289        7.29862
H          8.39864        1.98563        3.92365
H          9.22042        1.41486        2.64062
