24

C          0.79367        0.08888       -0.05419
C          2.32475        0.05943       -0.09454
C          2.92604       -1.26736        0.38220
C          4.45588       -1.30652        0.33129
C          5.04057       -2.65074        0.77284
C          6.57959       -2.69436        0.84157
C          7.10065       -1.71600        1.96312
O          7.30018       -2.25549        3.09170
O          7.23548       -0.50628        1.63177
N          7.00436       -4.09686        1.08135
H          0.39136        1.05275       -0.40157
H          0.41969       -0.07787        0.96798
H          0.36324       -0.69997       -0.69105
H          2.72800        0.87951        0.52308
H          2.66959        0.26316       -1.12326
H          2.50935       -2.09198       -0.22700
H          2.59270       -1.46345        1.41775
H          4.88515       -0.50756        0.95657
H          4.79224       -1.08604       -0.69863
H          4.70780       -3.45429        0.09108
H          4.65018       -2.91319        1.77326
H          6.98440       -2.35433       -0.12711
H          7.09467       -4.12123        2.11134
H          7.97495       -4.17361        0.76466
