72

C          0.17564        8.83358        3.91811
C          1.69803        8.83130        4.07635
C          2.41722        7.96872        3.03418
C          3.94006        7.95291        3.19651
C          4.66898        7.12239        2.13576
C          6.19109        7.10560        2.30963
C          6.92964        6.35377        1.19577
C          8.45988        6.36690        1.34361
Si         9.41020        5.72278       -0.17809
C          8.86799        6.71345       -1.67221
C          8.73855        8.11613       -1.58617
C          8.27088        8.87083       -2.66630
C          7.90990        8.28717       -3.89821
C          8.06998        6.88848       -3.97872
C          8.52561        6.11826       -2.90291
Ga         7.16399        9.35300       -5.47376
C          8.08465       11.16970       -5.61953
C          7.51067       12.05039       -6.73247
C          8.21292       13.40390       -6.92756
C          7.57310       14.27930       -8.01065
C          5.12796        9.53793       -5.30825
C          4.43226        8.32789       -4.68063
C          2.89595        8.36380       -4.72196
C          2.23117        7.20199       -3.97610
C         11.26660        5.92554        0.16456
C          9.05747        3.87554       -0.42512
H         -0.31118        9.46489        4.67535
H         -0.23478        7.81709        4.01706
H         -0.11972        9.21150        2.92792
H          1.96380        8.47597        5.08684
H          2.07664        9.86542        4.01041
H          2.16192        8.33190        2.02331
H          2.03249        6.93463        3.08908
H          4.19500        7.57079        4.20146
H          4.31809        8.99015        3.16301
H          4.42505        7.51753        1.13455
H          4.28585        6.08651        2.15344
H          6.44659        6.66470        3.29031
H          6.56240        8.14556        2.33862
H          6.65529        6.80184        0.22635
H          6.56723        5.31139        1.15951
H          8.76689        5.80058        2.24094
H          8.79865        7.40440        1.51623
H          8.99653        8.63103       -0.65278
H          8.18139        9.95574       -2.54054
H          7.82489        6.38335       -4.91960
H          8.60814        5.03229       -3.02288
H          7.47747        8.45757       -6.79261
H          9.16003       10.99305       -5.80233
H          8.02081       11.70675       -4.65463
H          6.43820       12.24012       -6.53936
H          7.54049       11.50151       -7.69256
H          9.27399       13.22297       -7.17388
H          8.21563       13.94651       -5.96594
H          7.57449       13.76652       -8.98528
H          8.09825       15.23899       -8.13667
H          6.52312       14.50313       -7.76420
H          4.74610        9.69397       -6.33375
H          4.86754       10.44993       -4.73998
H          4.75521        8.22273       -3.62885
H          4.76840        7.39838       -5.17788
H          2.56825        8.36499       -5.77674
H          2.54811        9.32255       -4.29853
H          2.56603        6.23140       -4.37474
H          1.13266        7.23265       -4.04937
H          2.49551        7.22050       -2.90695
H         11.52652        6.98665        0.28878
H         11.85929        5.53727       -0.67634
H         11.57434        5.38971        1.07556
H          7.99068        3.68947       -0.61313
H          9.35093        3.30161        0.46684
H          9.62023        3.47338       -1.27987
