18

O          3.01439        1.59113        1.55314
Al         2.88411        0.30751        0.36108
S          0.48560        0.28387       -0.29002
O         -0.08454        1.55614       -0.74121
O          0.04615       -0.92189       -0.99806
F         -0.21886        0.08892        1.26874
C          3.83109        0.73268       -1.34411
C          5.35650        0.54839       -1.26701
C          6.09147        0.81548       -2.58881
H          2.50371        1.47641        2.36416
H          3.04962       -1.19952        0.92730
H          3.59753        1.76779       -1.65048
H          3.42655        0.08371       -2.14259
H          5.59191       -0.47816       -0.93401
H          5.77300        1.21294       -0.49011
H          5.72750        0.14114       -3.37987
H          7.18136        0.67180       -2.49752
H          5.91438        1.84644       -2.93287
