23

S          4.72796        2.93457        0.01688
C          4.42252        1.12721       -0.12549
C          4.93832        0.44142        1.13845
C          4.72515       -1.07407        1.04672
C          5.34525       -1.97946        2.11875
S          4.79635       -1.59938        3.88056
O          5.32526       -2.60308        4.78482
O          5.02111       -0.18350        4.15694
C          2.87191       -1.74738        4.05600
F          2.20216       -1.33775        2.95885
F          2.46212       -2.95963        4.41742
F          2.54734       -0.89186        5.06563
C          4.96410       -3.48824        1.77510
O          5.79101       -4.15848        1.14391
O          3.78597       -3.70831        2.15644
Cl         7.13076       -1.66913        2.23097
H          4.18530        3.28751       -1.17236
H          4.94386        0.74754       -1.01559
H          3.34353        0.95868       -0.25017
H          4.42840        0.85165        2.02026
H          6.01013        0.65572        1.26496
H          5.16271       -1.44678        0.10456
H          3.65343       -1.31724        1.01066
