47

S          1.49455        0.81739        1.38940
Ga         2.84459       -0.33387       -0.15490
C          4.09148       -1.54174        0.86606
C          4.03939       -2.93750        0.71464
C          4.90272       -3.79297        1.41074
C          5.86540       -3.28360        2.29121
C          5.93076       -1.88982        2.45138
C          5.06334       -1.04462        1.75494
C          6.80579       -4.19728        3.04066
C          3.84528        1.14569       -1.11327
C          4.13033        2.37386       -0.48737
C          4.78294        3.41089       -1.15182
C          5.17391        3.24518       -2.49031
C          4.91667        2.02862       -3.13922
C          4.26241        1.00563       -2.44998
C          5.83374        4.37864       -3.21210
C          7.36726        4.62156       -2.93127
C          8.42452        3.50779       -3.29509
C          8.68990        3.05458       -4.78744
C          9.12114        4.08608       -5.90799
C         10.42718        4.94096       -5.70558
F         11.47981        4.15906       -5.40047
F         10.69497        5.57670       -6.86868
F         10.28060        5.86875       -4.74931
F          9.33723        3.33020       -7.02493
F          8.10383        4.93905       -6.16731
F          9.68958        2.12839       -4.70953
F          7.58522        2.43048       -5.26383
F          9.62911        3.95512       -2.81998
F          8.10630        2.37539       -2.62359
F          7.75777        5.77036       -3.56218
F          7.51955        4.82363       -1.59096
F          5.70532        4.27123       -4.58069
F          5.25540        5.58719       -2.86236
H          1.76053       -0.04265        2.39761
H          1.97334       -1.17415       -1.19862
H          3.30247       -3.37499        0.03359
H          4.82906       -4.87647        1.26904
H          6.67478       -1.46367        3.13264
H          5.14497        0.03523        1.91174
H          6.57525       -5.25370        2.84339
H          6.74412       -4.03880        4.12884
H          7.85497       -4.02602        2.75082
H          3.79788        2.52939        0.54339
H          4.96816        4.35888       -0.64455
H          5.20875        1.89385       -4.18110
H          4.05145        0.07378       -2.98347
