42

N          2.71684       -1.67818        0.39863
C          2.32838       -0.40028        0.15243
O          1.52189       -0.08457       -0.73059
C          2.98555        0.62380        1.08147
C          4.53482        0.61598        1.01284
C          5.32381        0.43214        2.32962
S          5.10616        2.05187        3.23381
O          5.86579        3.06648        2.50327
O          3.70087        2.28669        3.53051
C          5.93837        2.07627        4.98872
F          7.12174        1.43697        5.05858
F          6.18152        3.39788        5.21658
F          5.12926        1.64958        5.95472
C          4.85755       -0.76550        3.24736
O          4.32039       -1.73873        2.64684
O          5.16041       -0.64707        4.45168
C          6.83525        0.27512        2.03101
C          7.22205       -1.10548        1.47953
C          8.71864       -1.17956        1.16836
C          9.15843       -2.56093        0.68577
N         10.58814       -2.56535        0.40016
C         11.24123       -3.69549       -0.05924
N         10.73180       -4.82810       -0.40922
N         12.63538       -3.51706       -0.12696
H          2.28030       -2.41857       -0.13674
H          3.32947       -1.86988        1.21679
H          2.65755        0.40252        2.10663
H          2.58478        1.60840        0.81804
H          4.89399        1.52826        0.51143
H          4.85585       -0.22579        0.38332
H          7.40359        0.43776        2.95686
H          7.13789        1.06316        1.32232
H          6.64954       -1.33458        0.56666
H          6.95030       -1.88094        2.21137
H          9.29121       -0.92002        2.07750
H          8.98619       -0.43049        0.40424
H          8.61677       -2.82582       -0.23721
H          8.89482       -3.32189        1.44551
H         11.14433       -1.97223        1.01052
H          9.73452       -4.86909       -0.18400
H         12.91450       -2.62953       -0.53945
H         13.06291       -4.30441       -0.60793
