9

O          1.21031       -0.28345        0.56991
Al         2.89787        0.25567        0.38538
C          3.74104       -0.81039       -1.20900
F          3.88257       -2.18627       -1.02289
F          3.01027       -0.71927       -2.40385
F          5.02420       -0.39788       -1.58114
H          0.63711       -0.05094       -0.17086
H          3.74263       -0.12355        1.72438
H          3.02250        1.82538       -0.07034
