39

C          1.09215        0.22910        0.80014
C          2.59327       -0.01113        0.61144
C          2.91427       -0.90384       -0.59138
C          4.41906       -1.12390       -0.79029
C          4.83303       -2.27406       -1.73748
C          4.38845       -3.67377       -1.09957
O          4.02160       -4.57935       -1.90528
O          4.50620       -3.75276        0.14916
C          4.34428       -2.03207       -3.19248
C          2.92769       -2.50737       -3.51708
C          2.54918       -2.41676       -4.97316
O          3.32464       -2.21991       -5.90745
N          1.18713       -2.57141       -5.21623
C          6.38963       -2.28462       -1.74925
C          7.00695       -3.55046       -2.34621
S          8.82007       -3.35285       -2.48287
C          9.26680       -5.01850       -3.04677
H          0.88192        0.85977        1.67735
H          0.55617       -0.72252        0.93809
H          0.65369        0.72608       -0.07957
H          3.01070       -0.48044        1.51765
H          3.11140        0.95832        0.50240
H          2.46217       -0.45546       -1.49331
H          2.42979       -1.88311       -0.44199
H          4.85616       -1.36457        0.19057
H          4.88088       -0.17991       -1.14086
H          5.01166       -2.54657       -3.89832
H          4.44862       -0.95555       -3.42167
H          2.15892       -1.99498       -2.91987
H          2.90256       -3.57393       -3.20312
H          0.61869       -3.00887       -4.49904
H          0.94001       -2.78404       -6.17696
H          6.74319       -2.18330       -0.71174
H          6.74822       -1.39852       -2.30664
H          6.60568       -3.76588       -3.34689
H          6.79371       -4.41475       -1.70273
H         10.35656       -5.03706       -3.17860
H          8.78918       -5.25643       -4.00772
H          8.98433       -5.77772       -2.30417
