25

C          1.43234       -0.35175        0.35632
Ta         3.53446        0.06143       -0.02219
C          4.52710        2.02457        0.33257
C          3.57197        3.21849        0.37605
C          4.32299        4.56215        0.48254
C          3.42693        5.76817        0.66124
C          4.17680        7.13355        0.73326
F          5.06234        7.14564        1.75934
F          4.86474        7.36742       -0.41060
F          3.32203        8.16684        0.91701
F          2.52089        5.89342       -0.37124
F          2.69137        5.68402        1.82654
I          4.20677       -2.15404       -1.58055
H          0.92764        0.56838        0.69909
H          1.24753       -1.13025        1.11325
H          0.96616       -0.66936       -0.59619
H          3.29730        1.09309       -1.49933
H          4.99398       -0.50462        0.85614
H          3.32243        0.42483        1.70983
H          5.22435        2.13658       -0.52303
H          5.12572        2.00223        1.25573
H          2.89713        3.11961        1.24164
H          2.93868        3.23418       -0.52570
H          4.92959        4.72542       -0.42152
H          5.01448        4.53732        1.33856
