26

I          6.84501        2.31514       -0.44610
Nb         4.79734        0.51318       -0.72114
S          2.67111        1.16175       -1.74959
O          2.17639        2.30738       -2.50251
O          3.37336        0.08661       -2.55814
F          1.28293        0.40185       -1.28075
C          5.48569       -1.58678       -0.98883
C          6.58244       -2.09240       -0.25328
C          7.13666       -3.34938       -0.51737
C          6.60106       -4.17263       -1.51573
C          5.51108       -3.70155       -2.24469
C          4.96797       -2.43051       -1.99155
C          4.88905       -4.55955       -3.31273
F          5.59883       -5.70042       -3.56185
F          3.62326       -4.96142       -2.98476
F          4.77965       -3.90492       -4.50574
C          8.31983       -3.86075        0.25586
F          8.65301       -3.07880        1.31392
F          8.10814       -5.12204        0.75172
F          9.44496       -3.95888       -0.52458
H          4.24220        1.23201        0.75386
H          5.10936       -0.16870        0.82427
H          3.55442       -0.37631        0.12203
H          7.00578       -1.49249        0.55393
H          7.02036       -5.15839       -1.71219
H          4.11733       -2.09860       -2.58971
