35

O          1.33330        0.16972       -0.34396
C          2.57004        0.09271       -0.36602
O          3.29058       -0.68114       -1.06025
C          3.38471        1.14688        0.59077
C          3.12536        2.54881       -0.00138
F          3.47813        2.62187       -1.31493
F          1.83964        2.96146        0.08590
F          3.87061        3.51639        0.64107
C          2.86962        1.14816        2.03437
C          3.75976        1.27224        3.11520
C          3.29970        1.28363        4.43401
C          1.93579        1.18408        4.71722
C          1.04537        1.07467        3.64875
C          1.49625        1.06011        2.32452
C         -0.43731        1.02368        3.91999
F         -0.71869        0.61856        5.19493
F         -1.02395        2.25267        3.77506
F         -1.09488        0.18160        3.08483
C          4.26767        1.37087        5.58344
F          5.52965        1.68771        5.19527
F          3.88994        2.30977        6.50381
F          4.35475        0.18932        6.27007
C          4.90533        0.88003        0.48994
C          5.36268       -0.48741        1.06196
C          6.25504       -1.27390        0.09901
O          7.38371       -1.64031        0.39128
O          5.70373       -1.53730       -1.08725
H          4.82802        1.36711        2.93939
H          1.57709        1.19174        5.74554
H          0.80633        0.94798        1.48696
H          5.46772        1.68770        0.98008
H          5.16260        0.93591       -0.57410
H          4.48456       -1.11584        1.27753
H          5.92404       -0.37180        1.99643
H          4.74039       -1.16744       -1.09768
