28

O          1.51095        0.01066        1.59200
C          1.85168        0.47884        0.35414
O          1.02175        0.47895       -0.53233
C          3.27314        0.98656        0.22030
C          4.36183       -0.05092        0.57293
P          5.82505        0.69541        1.50596
C          5.16092       -0.00596        3.38839
C          5.50649       -1.43045        3.85344
F          6.85081       -1.58875        3.92551
F          5.00135       -1.76025        5.08019
F          5.02734       -2.34955        2.97385
F          5.58003        0.84767        4.38663
F          3.74445        0.07118        3.45022
S          7.89713        1.78868        2.30126
O          8.96081        1.23538        1.42156
O          7.67921        3.25805        2.25892
C          8.52597        1.46025        3.99240
H          2.28632        0.06087        2.18872
H          3.37511        1.85783        0.89683
H          3.39298        1.36156       -0.80178
H          4.78812       -0.47926       -0.34468
H          3.94645       -0.89283        1.14230
H          6.36821        1.33949        0.31374
H          6.67141       -0.47299        1.36385
H          5.15897        1.91488        1.95724
H          8.62652        0.37836        4.13129
H          7.83602        1.88985        4.72494
H          9.50708        1.95048        4.03316
