52

N          3.21892        1.87024       -0.92147
C          3.19415        1.05310        0.31440
C          2.82421       -0.41357        0.11039
P          4.09297       -1.46054       -0.94507
C          5.18890       -1.89962        0.64258
C          6.70506       -1.79082        0.48282
C          7.47761       -1.66575        1.80452
C          8.99768       -1.56509        1.63458
C          9.76435       -1.44774        2.95600
C         11.28334       -1.37090        2.77948
C          5.21959       -2.59673       -2.09211
C          4.55890       -2.85558       -3.43542
C          5.22756       -3.91334       -4.33099
C          5.15664       -5.32717       -3.75494
N          5.73659       -6.29409       -4.68466
C          5.71138       -7.65157       -4.43427
N          5.33436       -8.26251       -3.36142
N          6.16337       -8.41515       -5.53241
H          2.33047        1.71747       -1.40873
H          3.91762        1.43230       -1.53203
H          2.51531        1.55285        1.03230
H          4.20523        1.12047        0.75561
H          1.86650       -0.48890       -0.43710
H          2.68748       -0.91555        1.08473
H          5.00283       -0.26042       -1.16021
H          3.30644       -1.07712       -2.16503
H          3.20424       -2.65814       -0.74238
H          4.89595       -2.91680        0.96069
H          4.86977       -1.20814        1.44155
H          6.93383       -0.90613       -0.14303
H          7.09777       -2.66161       -0.07016
H          7.24282       -2.53273        2.44880
H          7.11228       -0.77762        2.35145
H          9.23650       -0.69496        0.99669
H          9.36169       -2.45084        1.08281
H          9.51217       -2.31067        3.59640
H          9.41125       -0.55542        3.50108
H         11.66797       -2.26418        2.26352
H         11.80538       -1.29199        3.74505
H         11.56798       -0.49622        2.17429
H          5.35864       -3.53240       -1.52385
H          6.20776       -2.12531       -2.23149
H          4.51079       -1.90851       -3.99856
H          3.50379       -3.14566       -3.26429
H          6.28514       -3.64885       -4.50287
H          4.73366       -3.92176       -5.32325
H          4.10108       -5.57691       -3.53094
H          5.70858       -5.37412       -2.80402
H          5.65310       -6.03972       -5.66539
H          4.91623       -7.60570       -2.69684
H          7.01982       -8.05158       -5.94651
H          6.27867       -9.38383       -5.24310
