19

Br         1.56198        1.59410        1.47900
Nb         3.10728        0.18931        0.06909
C          4.79184        1.25689       -1.00907
C          5.96368        1.99199       -0.31746
C          6.75251        3.07338       -1.13876
F          7.42718        2.52614       -2.17130
F          5.93379        4.02943       -1.62811
F          7.66489        3.68860       -0.33920
F          5.49451        2.63590        0.79392
F          6.89617        1.07464        0.06995
F          5.23360        0.85372       -2.24808
F          3.79953        2.28813       -1.28487
C          4.30586       -1.65435       -0.43177
F          3.95273       -2.91549       -0.02975
F          4.02509       -1.63555       -1.84118
F          5.68332       -1.67032       -0.37507
H          2.95645       -0.93116        1.36123
H          2.08658       -1.18969       -0.30020
H          4.36366        0.07681        1.24705
