32

O          4.32480       -2.60924        0.34079
C          5.41434       -2.11884       -0.32247
O          5.90869       -2.75856       -1.22516
C          5.94106       -0.76399        0.15075
C          5.09378       -0.02278        1.18970
Ga         5.83897        1.74781        1.75314
S          4.08586        2.77178        3.13816
O          4.50944        3.85795        4.02943
O          2.97248        3.02079        2.20334
C          3.39314        1.42859        4.45565
C          2.02002        0.78566        4.12182
C          1.50839       -0.32946        5.10553
F          2.34523       -1.38487        5.13399
F          1.37223        0.14544        6.35935
F          0.29574       -0.77000        4.69184
F          1.06777        1.75477        4.10677
F          2.08926        0.20046        2.88974
F          4.33755        0.43981        4.52452
F          3.31224        2.03009        5.66634
S          7.93369        1.29555        2.91850
O          8.67000        0.51661        1.89917
O          8.61893        2.41548        3.57616
C          7.73815        0.00937        4.34851
F          6.96913       -1.03870        3.95234
F          8.94977       -0.47023        4.69898
F          7.16635        0.55852        5.43946
H          4.07033       -1.94761        1.01575
H          6.08295       -0.16570       -0.76190
H          6.95870       -0.94546        0.53255
H          4.99363       -0.60840        2.11728
H          4.08292        0.19717        0.81020
H          6.25080        2.95421        0.85512
