26

C          2.57499        1.68866       -0.05439
C          2.60033        0.15415       -0.13609
C          2.95771       -0.55848        1.15898
As         2.57928       -2.62776        0.91841
C          2.63549       -3.01097        2.99938
C          3.72830       -4.02378        3.29500
O          0.61106       -2.22126        0.98943
C          4.39395       -0.33696        1.60975
H          2.30840        2.14372       -1.02337
H          3.55090        2.10218        0.24582
H          1.83243        2.02571        0.68652
H          3.31128       -0.15512       -0.92537
H          1.61223       -0.20839       -0.46352
H          2.24259       -0.27889        1.94890
H          2.25864       -4.19474        0.76240
H          4.15480       -2.94143        0.78362
H          2.41023       -2.42778       -0.65378
H          1.64208       -3.42910        3.22709
H          2.76205       -2.07298        3.56167
H          3.69759       -4.83583        2.54385
H          3.64030       -4.49783        4.29014
H          4.72809       -3.56725        3.23083
H          0.34367       -2.42032        1.89989
H          5.10135       -0.71440        0.85078
H          4.61253       -0.88039        2.54216
H          4.64027        0.72795        1.78974
