32

N          0.90924       -0.01474       -0.44020
C          2.27875       -0.04672       -0.08316
N          2.75784       -0.28591        1.09272
N          3.10130        0.24678       -1.14658
C          4.54320        0.42081       -0.97119
C          5.19838        0.79946       -2.29894
C          6.72286        0.97899       -2.18929
C          7.33766        1.47764       -3.49154
As         9.35167        1.65381       -3.42838
C          9.60221       -0.63381       -3.76101
C          9.01739       -1.50547       -4.88331
F          9.40115       -1.08014       -6.10023
F          9.38326       -2.83300       -4.79583
F          7.65297       -1.49687       -4.84070
F         10.98275       -0.78792       -3.84682
F          9.22768       -1.28122       -2.57110
Cl         8.97992        2.38115       -5.98514
H          0.31423       -0.43187        0.26941
H          0.71568       -0.41859       -1.35521
H          2.01608       -0.58659        1.73095
H          2.68349        0.82573       -1.86882
H          4.95684       -0.52234       -0.58445
H          4.74948        1.18881       -0.20446
H          4.74686        1.73768       -2.67152
H          4.97726        0.02523       -3.05238
H          7.17327        0.01570       -1.90308
H          6.94500        1.68611       -1.37082
H          7.00884        2.48994       -3.76269
H          7.13826        0.81530       -4.33946
H          9.32774        3.18968       -3.11241
H         10.79034        1.64232       -3.94679
H          9.61071        1.24856       -1.95156
