35

N          2.42948        2.46811        0.63575
C          3.21195        2.02839       -0.37534
O          4.16064        2.73366       -0.78158
C          2.94425        0.70080       -1.02156
C          4.19116        0.29630       -1.81835
Ta         5.41814        2.01267       -2.50476
S          5.35211        2.36588       -5.13734
O          5.81498        3.67546       -5.61805
O          5.59716        1.20394       -6.00479
C          3.35155        2.52036       -5.27145
C          2.73972        1.98804       -6.60011
C          1.22780        2.34675       -6.85209
F          0.45170        1.97758       -5.80714
F          1.04856        3.66402       -7.06800
F          0.77834        1.68710       -7.94927
F          3.42736        2.49975       -7.65666
F          2.81149        0.62992       -6.62949
F          2.79127        1.78749       -4.23681
F          2.95818        3.81485       -5.11477
S          7.88691        2.09750       -3.08575
O          8.50506        1.41819       -4.23104
O          8.13181        3.55193       -2.92987
C          8.89375        1.28761       -1.62278
F          8.32125        0.10780       -1.24628
F         10.15856        1.01761       -2.01905
F          8.97793        2.06951       -0.52013
H          2.58618        3.39506        1.01433
H          1.63391        1.93047        0.95001
H          2.09787        0.85432       -1.71491
H          2.59336       -0.03047       -0.26844
H          3.93870       -0.43360       -2.59411
H          4.93457       -0.19344       -1.15578
H          4.51490        3.41275       -3.10215
H          6.52945        2.31429       -1.16034
H          5.79216        0.57444       -3.41619
