39

N          0.57146        3.92443        1.92026
C          2.02468        4.13108        2.06287
C          2.78084        2.80869        1.95798
C          4.29322        2.99899        2.09712
C          5.03919        1.65885        2.02967
C          6.57534        1.76413        2.18165
S          7.24620        0.06209        2.62124
O          6.43544       -0.96317        1.98068
O          8.69453        0.07220        2.50961
C          6.96175       -0.28836        4.51244
C          7.11206       -1.82759        4.87478
C          8.45131       -2.57119        4.53243
F          9.51981       -1.89251        4.98546
F          8.43151       -3.78100        5.15286
F          8.58425       -2.78840        3.21868
F          6.98768       -1.88909        6.23977
F          6.09506       -2.54261        4.33737
F          7.85853        0.37415        5.26088
F          5.69950        0.03074        4.88795
S          7.25849        2.11057        0.44704
O          7.46103        0.84729       -0.24741
O          6.43502        3.13427       -0.17500
C          9.03805        2.90260        0.54633
F          9.72906        2.59475        1.64108
F          9.69069        2.38151       -0.52673
F          8.98391        4.22488        0.37794
C          6.97901        2.91367        3.22667
O          6.63132        2.65158        4.39237
O          7.49519        3.91332        2.69420
H          0.08076        4.81472        2.01741
H          0.23635        3.33296        2.68370
H          2.30821        4.62924        3.01145
H          2.34862        4.79829        1.24782
H          2.53487        2.33339        0.99425
H          2.41738        2.12340        2.74647
H          4.51967        3.47925        3.06078
H          4.65830        3.66945        1.30848
H          4.79331        1.11851        1.10208
H          4.68891        1.02270        2.85540
