70

C          0.80184        2.65356       -6.37044
O          2.17538        2.98388       -6.35120
C          2.94264        2.01448       -5.64389
C          4.41077        2.41596       -5.68451
O          5.11408        1.44433       -4.93957
C          6.53252        1.67427       -4.91308
C          7.12948        0.53699       -4.09154
C          8.67010        0.39830       -4.08013
S          9.38528        1.86735       -3.24517
O          8.49938        2.35271       -2.20135
O         10.79899        1.78436       -2.98333
F          9.21398        2.95866       -4.43475
C          9.03125       -0.86492       -3.30573
C          8.72293       -2.09959       -3.91433
C          8.96872       -3.30556       -3.26242
C          9.53437       -3.35239       -1.97119
C          9.84133       -2.11584       -1.37324
C          9.59340       -0.90150       -2.01700
Si         9.91106       -4.97623       -1.11013
C         11.72266       -5.48884       -1.42810
C         12.08678       -5.60184       -2.91465
C         13.51000       -6.08774       -3.12865
C         13.95268       -6.36859       -4.61036
C         13.86707       -5.23346       -5.69991
C         14.69075       -3.88823       -5.55834
C         16.25760       -3.98700       -5.44275
C         17.01274       -2.62653       -5.69434
F         16.50701       -1.64173       -4.93582
F         18.31287       -2.79943       -5.36495
F         16.95423       -2.26586       -6.98696
F         16.59239       -4.40580       -4.19801
F         16.73559       -4.87944       -6.35134
F         14.40919       -3.17791       -6.68483
F         14.21917       -3.20631       -4.48771
F         14.22824       -5.81028       -6.87988
F         12.56491       -4.85202       -5.80308
F         15.23412       -6.83523       -4.60515
F         13.14789       -7.37012       -5.08385
F         14.42233       -5.21997       -2.57996
F         13.70163       -7.30064       -2.49186
C          9.70711       -4.82502        0.76350
C          8.77981       -6.35196       -1.75026
C          9.29550        0.24913       -5.63335
O          8.48059       -0.32190       -6.38879
O         10.44621        0.67151       -5.78328
H          0.28196        3.44276       -6.92935
H          0.37967        2.59867       -5.34781
H          0.62235        1.68125       -6.86961
H          2.81884        1.01366       -6.10143
H          2.60564        1.94631       -4.59101
H          4.53720        3.42886       -5.25103
H          4.76555        2.45485       -6.73349
H          6.73224        2.66204       -4.46157
H          6.93875        1.65503       -5.93880
H          6.76748       -0.39694       -4.54084
H          6.75060        0.59146       -3.05992
H          8.30886       -2.08895       -4.92449
H          8.70804       -4.23231       -3.78103
H         10.27765       -2.08379       -0.37086
H          9.84714        0.02115       -1.49621
H         11.90185       -6.44913       -0.91844
H         12.37595       -4.74665       -0.94298
H         11.97526       -4.62778       -3.41139
H         11.42378       -6.30653       -3.43875
H         10.37937       -4.06353        1.18348
H          9.93266       -5.77998        1.26031
H          8.67794       -4.54008        1.02337
H          8.87593       -6.50358       -2.83468
H          7.72643       -6.11324       -1.54587
H          9.01295       -7.30762       -1.25792
