30

C          6.78745       -0.31322       -2.01280
S          5.58130        0.42791       -0.87429
C          6.02695       -0.45547        0.68610
C          5.17817       -0.01701        1.87046
Al         5.70857       -1.06567        3.51145
S          4.03308       -0.44530        5.19952
O          4.10684       -1.20723        6.44757
O          3.76106        0.99077        5.31550
F          2.60954       -1.03703        4.47214
C          7.50944       -0.62582        4.28950
C          8.05908        0.80942        4.18372
C          7.32336        1.76636        5.13038
C          9.57429        0.86537        4.44433
H          6.63481        0.13974       -3.00132
H          6.64237       -1.40013       -2.09704
H          7.81823       -0.10991       -1.68747
H          7.09829       -0.26004        0.85951
H          5.91011       -1.53316        0.48660
H          4.11098       -0.19873        1.66368
H          5.28965        1.06562        2.04477
H          5.45495       -2.65851        3.36921
H          8.19325       -1.31366        3.75241
H          7.55284       -0.95773        5.34394
H          7.89454        1.17362        3.15151
H          7.45987        1.44739        6.17690
H          6.24186        1.78657        4.93814
H          7.70707        2.79535        5.04073
H          9.80049        0.51835        5.46609
H          9.97241        1.88895        4.34023
H         10.12163        0.21471        3.74512
