23

C          2.64564       -0.72223        1.89347
In         2.54294        0.23052       -0.12394
C          4.01374       -1.19000       -1.34080
C          5.04900       -0.52678       -2.28098
C          5.84563       -1.43073       -3.29779
C          7.13048       -0.78415       -3.93345
F          6.87318        0.43229       -4.45459
F          8.12936       -0.66498       -3.03693
F          7.58370       -1.57643       -4.94174
F          6.26681       -2.57893       -2.69509
F          5.03327       -1.76871       -4.33944
F          4.40464        0.41297       -3.04821
F          5.98381        0.12820       -1.51438
F          4.75486       -2.00141       -0.46733
F          3.29730       -2.09539       -2.14655
C          3.46638        2.26567       -0.06951
H          2.89246       -1.78993        1.80994
H          1.69266       -0.62819        2.43456
H          3.43094       -0.23818        2.49339
H          0.98814        0.10572       -0.97165
H          4.47205        2.24927       -0.51264
H          3.56368        2.60116        0.97423
H          2.86516        3.00641       -0.61547
