68

C          9.12722       -3.59931       -4.64770
C          8.59488       -2.68496       -3.54158
C          9.12716       -1.25089       -3.63165
C          8.60519       -0.32961       -2.52507
C          9.14371        1.10282       -2.60282
C          8.62656        2.01133       -1.48281
C          9.17392        3.44314       -1.53706
C          8.65676        4.34055       -0.40276
Si         9.27821        6.14304       -0.41954
C          8.79887        6.99409       -2.01818
C          7.51929        6.80273       -2.58455
C          7.14607        7.44631       -3.76797
C          8.01498        8.31530       -4.44303
C          9.28198        8.51322       -3.87682
C          9.67249        7.86836       -2.69828
P          7.48386        9.21168       -6.11016
C          6.50266       10.54048       -5.04551
C          5.90543       11.66143       -5.89252
C          4.61282       11.24959       -6.60778
C          4.05314       12.32386       -7.54415
C          2.74892       11.91267       -8.23392
C          8.44207        7.94767       -7.22220
C          8.50254        7.00827        1.08262
C         11.16095        6.15012       -0.18328
H          8.72971       -4.62059       -4.55811
H         10.22534       -3.66462       -4.61400
H          8.85143       -3.21998       -5.64309
H          8.85673       -3.10709       -2.55616
H          7.49241       -2.66497       -3.57842
H          8.86270       -0.82637       -4.61605
H         10.23112       -1.27165       -3.59900
H          8.86376       -0.76175       -1.54160
H          7.50169       -0.30536       -2.56317
H          8.87851        1.54195       -3.58009
H         10.24761        1.07846       -2.57185
H          8.87913        1.56316       -0.50452
H          7.52334        2.04711       -1.52277
H          8.91436        3.89636       -2.50816
H         10.27714        3.40354       -1.50910
H          8.91943        3.89940        0.57644
H          7.55263        4.36532       -0.42901
H          6.80076        6.13570       -2.09273
H          6.15069        7.27092       -4.19453
H          9.97801        9.19163       -4.38512
H         10.67891        8.04487       -2.30310
H          6.27129        8.32441       -6.16127
H          7.07539        9.90733       -7.36982
H          8.70728       10.08060       -6.00805
H          7.22847       10.94444       -4.32042
H          5.71300       10.01683       -4.47732
H          6.65128       11.95707       -6.65782
H          5.70558       12.56989       -5.29006
H          3.84926       10.98977       -5.85114
H          4.80674       10.32691       -7.17943
H          4.81283       12.56226       -8.30795
H          3.89054       13.25733       -6.97571
H          2.89135       10.99938       -8.83120
H          2.37134       12.69814       -8.90681
H          1.96064       11.69902       -7.49502
H          7.73733        7.56332       -7.97736
H          8.85281        7.09589       -6.65583
H          9.27074        8.46888       -7.73006
H          7.40554        7.01463        1.00593
H          8.83451        8.05496        1.14080
H          8.77638        6.50894        2.02492
H         11.67549        5.65884       -1.02123
H         11.43674        5.62348        0.74269
H         11.54970        7.17604       -0.11176
