33

S          1.51070        0.48705       -0.98248
C          3.29231        0.40071       -0.49675
C          3.39460        0.11105        1.00159
C          4.82449        0.00048        1.49278
As         4.87396       -0.48734        3.51551
C          4.84201       -1.20435        5.56120
C          3.51523       -1.77270        5.87043
O          2.74216       -1.38562        6.73685
O          3.13275       -2.81063        5.05021
C          6.95409       -0.83504        3.42189
C          7.75592       -0.12589        4.50198
C          9.22990        0.02257        4.11902
S         10.32511        0.75593        5.41127
H          1.70028        0.81445       -2.28292
H          3.76962        1.36002       -0.74125
H          3.77717       -0.39437       -1.08041
H          2.85724       -0.82780        1.22815
H          2.86653        0.90313        1.56009
H          5.37792        0.94698        1.37882
H          5.37024       -0.80155        0.97170
H          3.30559       -0.26024        3.60658
H          5.17435        1.02798        3.97701
H          4.59974       -2.10880        3.09166
H          5.09645       -0.38698        6.24390
H          5.62343       -1.97397        5.54061
H          3.73137       -2.78440        4.25164
H          7.24217       -0.47913        2.41979
H          7.06909       -1.92910        3.45214
H          7.68571       -0.65755        5.46287
H          7.32696        0.88071        4.67465
H          9.33693        0.60984        3.19591
H          9.68573       -0.96180        3.93393
H          9.61076        1.89274        5.58973
