31

C          7.89196        2.53863       -1.79428
S          6.26742        1.77241       -1.51094
C          6.28611        1.64257        0.32830
C          5.01770        1.02974        0.86439
As         4.90850        1.23191        2.94160
C          4.95535        1.45390        4.99025
C          5.01958        2.91032        5.40792
C          5.16264        3.18041        6.91715
C          6.46562        2.65008        7.51149
N          6.58859        3.02500        8.93614
F          6.86649        0.83564        3.01715
H          8.01970        2.66095       -2.87856
H          8.70214        1.90140       -1.41081
H          7.95567        3.52686       -1.31553
H          6.41066        2.66301        0.73088
H          7.16041        1.05119        0.63124
H          4.94403       -0.04587        0.64929
H          4.12080        1.54840        0.49030
H          5.34396        2.76849        2.74769
H          4.70832       -0.33490        3.12024
H          3.35203        1.54485        2.88111
H          5.84175        0.88231        5.29240
H          4.04405        0.95063        5.35263
H          4.11655        3.43265        5.04479
H          5.86480        3.38970        4.88016
H          4.31466        2.74444        7.47197
H          5.12251        4.27356        7.09446
H          7.31027        3.00856        6.88987
H          6.47857        1.55170        7.45293
H          6.62404        4.04445        9.01217
H          7.47809        2.68591        9.30715
