55

C          0.40761       -0.77714       -4.42153
C         -0.41047       -0.56658       -3.16951
C         -1.30851       -1.53958       -2.71143
C         -2.05160       -1.34776       -1.53861
C         -1.93459       -0.17818       -0.76429
C         -1.02976        0.79146       -1.24230
C         -0.28608        0.60882       -2.41348
In        -3.11376        0.22666        1.07740
C         -4.55368       -1.58940        1.43168
C         -6.06747       -1.51818        1.11110
C         -6.45389       -1.43716       -0.40162
F         -5.77737       -0.46442       -1.03974
F         -6.21878       -2.60559       -1.03725
F         -7.78045       -1.16986       -0.52073
F         -6.76025       -2.60478        1.60735
F         -6.58788       -0.40683        1.72076
F         -4.09296       -2.75395        0.79101
F         -4.52102       -1.89795        2.79787
C         -4.35406        2.03432        0.61744
C         -4.32674        2.61460       -0.66661
C         -5.10900        3.72089       -1.00485
C         -5.96824        4.28482       -0.04836
C         -6.01542        3.73533        1.24088
C         -5.21217        2.63599        1.55664
C         -6.81319        5.47201       -0.40675
C         -8.02515        5.23579       -1.38985
C         -9.13425        4.17398       -1.03333
C        -10.07699        4.35455        0.22792
C        -10.94669        5.66298        0.33739
C        -12.13989        5.56235        1.36299
F        -11.71517        5.13739        2.56687
F        -12.67823        6.79270        1.51035
F        -13.10486        4.73644        0.92289
F        -10.16466        6.69176        0.74333
F        -11.49478        5.96919       -0.86794
F        -10.94217        3.29818        0.17843
F         -9.33790        4.24019        1.35658
F         -9.95571        4.10046       -2.12296
F         -8.54175        2.96660       -0.87304
F         -8.66353        6.42743       -1.60302
F         -7.51613        4.82574       -2.58703
F         -7.34052        6.08452        0.70770
F         -6.05842        6.43489       -1.05946
H          0.05704       -1.65363       -4.98428
H          1.47190       -0.93960       -4.18518
H          0.35786        0.09622       -5.08970
H         -1.43124       -2.46425       -3.28522
H         -2.73845       -2.13910       -1.22854
H         -0.89513        1.72851       -0.69178
H          0.40053        1.39335       -2.74892
H         -2.22178        0.36142        2.58833
H         -3.67621        2.18904       -1.43623
H         -5.05149        4.14821       -2.00739
H         -6.67312        4.17045        1.99390
H         -5.27270        2.23560        2.57245
