52

N          1.42304       -1.19671        0.99824
C          2.09569       -0.09297        0.31162
C          2.55616        1.03783        1.17648
C          3.04298        0.83094        2.48413
C          3.50228        1.89307        3.25818
C          3.49944        3.22020        2.77429
C          3.02783        3.41872        1.45933
C          2.57365        2.35698        0.68154
Si         4.01312        4.61827        3.89580
C          2.93775        4.52756        5.47582
C          1.44619        4.42114        5.14152
C          0.46245        4.39295        6.30705
C          0.04783        2.99806        6.91201
C          1.10194        2.04035        7.59023
C          1.92031        2.47184        8.87170
C          1.19517        2.87310       10.21950
C          0.22652        1.84108       10.90797
F          0.80726        0.63409       11.03224
F         -0.06624        2.30198       12.14408
F         -0.92251        1.70844       10.22979
F          2.20322        3.10400       11.10993
F          0.51237        4.02897       10.04460
F          2.72663        1.41140        9.15967
F          2.71500        3.52456        8.55369
F          0.42573        0.90474        7.93126
F          2.02945        1.70397        6.65600
F         -0.94246        3.20990        7.82799
F         -0.47954        2.26144        5.89251
F          0.86467        5.19601        7.34933
F         -0.74786        4.90953        5.87695
C          5.81395        4.47451        4.45299
C          3.74766        6.30399        3.07740
C          3.41209       -0.67599       -0.46671
O          3.84217       -1.75690        0.00659
O          3.80752        0.03102       -1.41471
H          1.14419       -0.92920        1.94361
H          2.14093       -1.93398        1.06849
H          1.46175        0.31465       -0.49193
H          3.07864       -0.18537        2.88177
H          3.87344        1.67956        4.26642
H          3.00851        4.42532        1.03223
H          2.22792        2.53234       -0.33897
H          3.13332        5.40997        6.10394
H          3.28295        3.65456        6.04474
H          1.24942        3.54456        4.50626
H          1.12908        5.29586        4.55244
H          5.99988        3.49251        4.91066
H          6.07493        5.25054        5.18780
H          6.49029        4.57180        3.59238
H          2.70388        6.44966        2.76557
H          4.37797        6.40801        2.18296
H          4.01204        7.11413        3.77241
