68

C          1.30500        0.47097       -0.02491
Si         3.15473        0.23297        0.28937
C          3.47504       -0.32879        2.05420
C          2.68571       -1.34140        2.63777
C          2.92642       -1.79462        3.93729
C          3.95624       -1.25867        4.73968
C          4.73964       -0.24083        4.14668
C          4.51382        0.20653        2.84040
Ta         4.47195       -1.85389        6.80494
S          5.55746       -4.02811        6.30839
O          6.93035       -4.48541        6.05319
O          5.15864       -3.77561        7.77713
C          4.56161       -5.67534        6.02144
C          4.54799       -6.13735        4.53745
F          4.06209       -5.15677        3.74634
F          5.77828       -6.46709        4.10674
F          3.75024       -7.22855        4.38579
F          5.15918       -6.64435        6.76657
F          3.27886       -5.55074        6.43243
S          5.23041        0.03464        8.47574
O          6.41028        0.90649        8.57676
O          4.43453        0.22088        7.11197
C          3.91522        0.97308        9.57564
C          4.18989        0.82694       11.09689
F          4.21180       -0.47717       11.44221
F          5.36723        1.38274       11.43885
F          3.21515        1.43709       11.81973
F          3.96882        2.28897        9.24822
F          2.67134        0.50814        9.32312
C          3.76113       -1.11309       -0.92197
C          5.26377       -1.40342       -0.80966
C          5.72630       -2.49367       -1.76137
C          7.27704       -2.73091       -1.86954
C          8.12709       -3.05555       -0.58369
C          7.85544       -4.35465        0.27964
C          7.96695       -5.75337       -0.43479
C          8.10675       -6.97446        0.55178
F          7.15194       -6.95037        1.49148
F          7.97900       -8.11218       -0.16743
F          9.31382       -6.98714        1.14231
F          6.85563       -5.96246       -1.18141
F          9.05570       -5.77496       -1.25008
F          8.78847       -4.32271        1.27104
F          6.62738       -4.25001        0.84029
F          9.42763       -3.09663       -0.98475
F          7.99129       -2.01019        0.28002
F          7.50845       -3.72305       -2.77505
F          7.82288       -1.57758       -2.36696
F          5.14151       -3.69867       -1.45936
F          5.34820       -2.19509       -3.05700
C          4.06225        1.84930       -0.09107
H          0.73999       -0.44757        0.18734
H          1.11455        0.74875       -1.07210
H          0.90065        1.26535        0.61801
H          1.86403       -1.79017        2.06964
H          2.29734       -2.58860        4.34610
H          5.54230        0.23119        4.72013
H          5.15168        0.99945        2.43836
H          3.34313       -1.97295        8.18341
H          3.24814       -3.02967        6.29850
H          6.27005       -1.83739        6.74367
H          3.50870       -0.80476       -1.94889
H          3.18815       -2.03145       -0.71740
H          5.51910       -1.71606        0.21290
H          5.85889       -0.50469       -1.02980
H          3.71561        2.65668        0.56935
H          3.87587        2.16036       -1.12968
H          5.14995        1.76153        0.04069
