45

C          0.85145       -0.15044       -0.19100
C          2.34875       -0.25909       -0.52336
C          3.11497        1.06762       -0.54028
Ga         5.05157        0.81986       -1.14243
C          6.02757       -0.44123        0.13259
C          6.06355       -1.83016       -0.09898
C          6.73652       -2.71782        0.74866
C          7.42184       -2.25527        1.88132
C          7.39621       -0.87563        2.13511
C          6.71459       -0.00083        1.28077
C          8.18696       -3.20339        2.77463
C          6.12191        2.54193       -1.37710
C          7.55989        2.26613       -1.82888
C          8.35760        3.49576       -2.29531
C          9.81966        3.19750       -2.65032
C         10.58639        4.39903       -3.21540
C         12.06879        4.11657       -3.48061
H          0.35230       -1.13549       -0.17731
H          0.32893        0.47793       -0.93043
H          0.69795        0.31565        0.79579
H          2.45603       -0.75331       -1.50573
H          2.82464       -0.94659        0.19795
H          3.07588        1.54121        0.45743
H          2.63014        1.77218       -1.24132
H          5.01696        0.05382       -2.58073
H          5.55342       -2.23380       -0.97991
H          6.73456       -3.79171        0.52896
H          7.91861       -0.48257        3.01472
H          6.72617        1.06849        1.52069
H          7.80939       -4.23233        2.68224
H          8.11528       -2.91117        3.83323
H          9.26012       -3.22710        2.51915
H          6.12482        3.15067       -0.45462
H          5.59619        3.14318       -2.14132
H          7.55298        1.52785       -2.65255
H          8.11283        1.77379       -1.00802
H          8.32514        4.27245       -1.50922
H          7.85023        3.93725       -3.17297
H          9.85656        2.36821       -3.38005
H         10.34080        2.82370       -1.75035
H         10.49513        5.24849       -2.51624
H         10.10132        4.72879       -4.15048
H         12.59093        3.83553       -2.55301
H         12.58523        4.99316       -3.90017
H         12.19583        3.28441       -4.19014
