31

N          1.66010       -2.09553       -1.37878
C          1.79192       -0.90382       -0.51284
C          2.63183       -1.09369        0.76048
Ga         4.56081       -1.63417        0.38947
C          5.62641       -0.06021       -0.41378
C          5.58183        1.22348        0.41181
C          6.31579        2.44950       -0.13450
O          6.34894        3.53894        0.40348
O          6.96395        2.24592       -1.31699
C          5.54114       -2.34963        2.05524
C          6.86087       -3.02450        1.67856
C          7.65352       -3.72567        2.78119
O          8.71907       -4.28897        2.62533
O          7.06962       -3.68983        4.01504
H          1.19422       -2.82796       -0.83570
H          2.60529       -2.46703       -1.53167
H          0.76319       -0.56784       -0.28035
H          2.23134       -0.10221       -1.13268
H          2.15799       -1.86618        1.39438
H          2.61333       -0.16152        1.35452
H          4.63951       -2.83663       -0.70024
H          5.19620        0.09346       -1.41947
H          6.66119       -0.42594       -0.54061
H          5.99017        1.06195        1.42380
H          4.54299        1.55101        0.58254
H          6.78487        1.30194       -1.54263
H          4.83693       -3.07228        2.50618
H          5.69646       -1.52436        2.77210
H          7.56132       -2.30620        1.22084
H          6.69838       -3.78292        0.89394
H          6.23317       -3.18511        3.87999
