31

C          0.71176        0.35215       -0.27842
C          2.24259        0.35824       -0.22905
C          2.80734       -0.87270       -0.95234
C          4.31666       -1.19074       -0.91519
S          5.16130        0.24314       -1.76436
O          4.65483        0.27768       -3.12676
O          5.06819        1.44760       -0.94959
C          7.08962       -0.04122       -1.96231
C          7.87001        1.30699       -1.75470
F          7.39389        2.27805       -2.56035
F          7.84494        1.72889       -0.48439
F          9.17733        1.10439       -2.09116
F          7.60116       -0.92512       -1.07743
F          7.34703       -0.44243       -3.22050
S          4.89089       -1.46105        0.84971
O          5.79378       -0.39450        1.26936
O          3.70696       -1.74465        1.65814
C          5.84603       -2.98370        0.79740
C          4.62476       -2.55956       -1.74354
O          3.76426       -3.44506       -1.58459
O          5.70011       -2.53001       -2.37557
H          0.29239        1.23502        0.22639
H          0.30155       -0.54354        0.21266
H          0.34594        0.35673       -1.31729
H          2.57719        0.36405        0.81756
H          2.62349        1.28115       -0.68655
H          2.53217       -0.83741       -2.01868
H          2.35283       -1.79395       -0.55835
H          6.67739       -2.87294        0.09567
H          5.18371       -3.80222        0.49916
H          6.20182       -3.09965        1.82864
