63

C         10.14131       -5.81861        1.74466
C          9.57347       -4.45151        1.35677
C          9.84111       -3.36574        2.40363
C          9.28862       -1.98902        2.02329
C          9.56731       -0.90495        3.06888
C          9.02498        0.47684        2.69164
C          9.32419        1.56030        3.73606
C          8.78624        2.95029        3.36624
Si         9.14514        4.35507        4.60707
C          8.39161        5.95846        3.99210
C          7.00077        6.17704        4.06207
C          6.42935        7.36779        3.60705
C          7.20097        8.40790        3.04932
C          8.59120        8.17884        2.97720
C          9.17100        6.99459        3.43735
B          6.49343        9.73782        2.47557
S          7.16145       11.33146        3.37826
O          8.63007       11.41883        3.47276
O          6.44085       12.54528        2.96080
C          6.63665       11.17113        5.22510
F          7.20104       10.09819        5.83105
F          7.02959       12.27862        5.90523
F          5.29168       11.06078        5.36833
C          6.75514       10.02889        0.88733
C          6.05365        8.99485       -0.00562
C          6.25619        9.23653       -1.50592
C          8.39850        3.88857        6.28756
C         11.02210        4.52917        4.80620
H          9.93561       -6.57753        0.97636
H          9.70626       -6.17544        2.69053
H         11.23211       -5.77063        1.88253
H          8.48584       -4.53624        1.19248
H         10.00108       -4.13518        0.39025
H         10.92978       -3.28703        2.57345
H          9.40769       -3.67904        3.37019
H          8.19938       -2.06576        1.85813
H          9.71937       -1.67931        1.05466
H         10.65708       -0.83416        3.23526
H          9.13449       -1.21402        4.03709
H          7.93335        0.41440        2.53696
H          9.44992        0.78533        1.72015
H         10.41708        1.60977        3.88709
H          8.90306        1.24184        4.70593
H          7.69228        2.90420        3.22292
H          9.19537        3.26409        2.38982
H          6.34720        5.40882        4.48977
H          5.34780        7.50801        3.68986
H          9.23538        8.96497        2.57596
H         10.25750        6.88112        3.37167
H          5.30389        9.78099        2.75870
H          7.83668       10.02308        0.65614
H          6.38955       11.03547        0.62018
H          4.97363        8.99862        0.22167
H          6.40922        7.98251        0.25081
H          5.87917       10.22870       -1.79985
H          5.73672        8.48367       -2.12058
H          7.32517        9.20369       -1.76938
H          7.30601        3.78255        6.22193
H          8.60849        4.67242        7.02912
H          8.80689        2.94090        6.66879
H         11.51199        4.74909        3.84669
H         11.46558        3.60465        5.20437
H         11.26709        5.34573        5.50023
