28

C          0.94493       -1.44790       -2.11486
O          2.33289       -1.41495       -1.86272
C          2.77419       -0.11868       -1.46548
C          4.28873       -0.06421       -1.43217
O          4.78576        0.03170       -2.74336
C          6.21285        0.17996       -2.77901
C          6.69281        0.40243       -4.20664
B          6.10573        1.70242       -5.06518
C          6.15119        3.17279       -4.26431
C          7.48150        3.81506       -4.02388
O          7.79963        4.97197       -4.24143
O          8.43891        2.97137       -3.48527
F          6.88031        1.78295       -6.29742
H          0.69339       -2.46915       -2.43101
H          0.65917       -0.74261       -2.91883
H          0.35351       -1.19809       -1.20977
H          2.36982        0.12291       -0.45994
H          2.40727        0.64397       -2.17867
H          4.68306       -0.96336       -0.90971
H          4.59139        0.82154       -0.83106
H          6.66747       -0.72471       -2.31528
H          6.49054        1.04015       -2.12986
H          6.46171       -0.50256       -4.79683
H          7.80586        0.39928       -4.16861
H          4.91250        1.50205       -5.32916
H          5.68796        2.99612       -3.27525
H          5.52283        3.91119       -4.78083
H          8.07757        2.06699       -3.57284
