43

C          4.19641        1.69227       -2.61582
C          4.63413        2.77312       -1.62715
C          3.44408        3.55229       -1.03079
N          2.60835        2.63386       -0.29142
C          1.32521        2.92881       -0.11711
C          0.61659        4.10442       -0.59474
C         -0.73457        4.29169       -0.37649
C         -1.51256        3.35315        0.34269
C         -0.84719        2.19805        0.83946
C          0.49691        1.99986        0.62577
C         -2.94993        3.57159        0.55430
C         -3.92272        3.39911       -0.67547
C         -3.98251        2.01950       -1.43422
C         -4.52102        0.70937       -0.72536
C         -5.97145        0.72234       -0.11045
C         -6.57196       -0.71296        0.14682
F         -5.71569       -1.49204        0.83362
F         -7.70244       -0.58007        0.87684
F         -6.89564       -1.33172       -1.00386
F         -5.95587        1.35911        1.08310
F         -6.83996        1.35550       -0.94326
F         -4.51619       -0.25404       -1.70222
F         -3.65568        0.32341        0.23883
F         -4.78866        2.21350       -2.52693
F         -2.74708        1.69905       -1.88788
F         -5.22249        3.68979       -0.31599
F         -3.56478        4.30707       -1.63195
F         -3.47445        2.75066        1.54259
F         -3.23723        4.89539        0.95421
C          3.95796        4.69937       -0.13644
H          5.04869        1.09929       -2.98241
H          3.69299        2.13648       -3.48962
H          3.48031        1.01864       -2.12504
H          5.32750        3.48054       -2.11574
H          5.18010        2.30684       -0.78886
H          2.90637        4.01432       -1.89408
H          1.16202        4.87680       -1.13822
H         -1.20987        5.20211       -0.74983
H         -1.41336        1.46034        1.41076
H          0.99292        1.10996        1.01969
H          4.53103        4.27805        0.70434
H          3.11848        5.27066        0.28396
H          4.60972        5.39437       -0.69298
