40

C          2.68323        0.89561       -0.16626
C          4.10587        0.43766        0.16618
C          4.55962       -0.78380       -0.64122
C          5.99750       -1.21263       -0.33372
C          6.47802       -2.47559       -1.07800
C          6.50855       -2.35910       -2.60899
Ta         7.52785       -3.83999       -3.80344
C          6.24654       -3.73436       -5.66533
C          6.55126       -4.35798       -7.05605
C          6.88080       -5.88682       -7.02676
C          7.12115       -6.56407       -8.42597
F          6.00135       -6.57003       -9.17829
F          8.10110       -5.96044       -9.12516
F          7.48855       -7.85461       -8.22806
F          8.01949       -6.08157       -6.30715
F          5.86341       -6.57972       -6.44866
F          5.48730       -4.18884       -7.92115
F          7.62085       -3.72422       -7.62094
F          4.92051       -4.11625       -5.36922
F          6.10919       -2.34792       -5.95078
C          9.65709       -3.39586       -3.22637
F          9.82940       -3.47920       -1.82883
F         10.68778       -4.14227       -3.74714
F         10.02632       -2.06543       -3.48523
H          2.38523        1.76814        0.43409
H          1.95272        0.09467        0.02446
H          2.59444        1.17406       -1.22703
H          4.17666        0.20800        1.24370
H          4.80957        1.26914       -0.01090
H          4.46132       -0.56306       -1.71709
H          3.87360       -1.62689       -0.44030
H          6.09403       -1.38336        0.75424
H          6.68056       -0.37866       -0.57518
H          5.83103       -3.32230       -0.78908
H          7.48452       -2.72177       -0.70353
H          7.03042       -1.42919       -2.92515
H          5.48791       -2.29736       -3.03575
H          8.44758       -3.22581       -5.17397
H          6.67428       -5.38517       -3.95132
H          8.23141       -5.22052       -2.95531
