29

C          1.00043        0.03895        0.17304
C          2.52926        0.03743        0.08074
C          3.07170       -0.82252       -1.06570
C          4.60039       -0.83732       -1.17390
C          5.14094       -1.70719       -2.31631
C          6.67038       -1.74200       -2.43066
B          7.29556       -2.69722       -3.60032
C          6.74871       -2.41773       -5.11182
C          7.13260       -1.02851       -5.64996
Cl         6.83465       -4.58101       -3.14958
H          0.63782        0.65636        1.00892
H          0.61272       -0.98122        0.31849
H          0.54874        0.43015       -0.75180
H          2.95451       -0.32181        1.03391
H          2.89217        1.07308       -0.03893
H          2.64302       -0.46446       -2.01963
H          2.70744       -1.85860       -0.94448
H          5.02783       -1.19294       -0.21813
H          4.96577        0.19949       -1.29807
H          4.70469       -1.34887       -3.26725
H          4.77384       -2.74086       -2.18941
H          7.08969       -2.05005       -1.45424
H          7.03826       -0.70710       -2.59219
H          8.52780       -2.66223       -3.56913
H          5.64919       -2.53384       -5.16453
H          7.15580       -3.18850       -5.79012
H          6.69926       -0.22294       -5.03387
H          6.80001       -0.85518       -6.68960
H          8.22638       -0.88833       -5.62648
