41

O          5.15604        1.57655        0.64854
C          3.93467        1.74402        0.10243
O          3.24782        2.72464        0.32548
C          3.53078        0.57014       -0.81433
C          4.59162       -0.48281       -1.01223
C          4.62089       -1.64455       -0.20231
C          5.46575       -2.77215       -0.49863
C          5.47878       -3.91439        0.28966
C          4.67918       -4.04282        1.43726
C          3.85663       -2.94848        1.75536
C          3.81966       -1.79549        0.98397
C          2.96307       -3.06720        2.95637
F          1.88519       -3.89184        2.72605
F          3.60678       -3.60670        4.03966
F          2.44204       -1.88070        3.37312
C          6.36351       -5.06960       -0.08037
F          5.64812       -6.21130       -0.35172
F          7.13760       -4.84265       -1.17927
F          7.22774       -5.41476        0.92833
C          5.35586       -0.45470       -2.31412
C          6.83878       -0.02726       -2.20997
C          7.53826       -0.13249       -3.57175
C          9.03254        0.10719       -3.60512
C          9.52984        1.53580       -3.21188
F          9.33326        1.78824       -1.90278
F         10.85151        1.67407       -3.46569
F          8.86941        2.47840       -3.92893
F          9.70470       -0.77553       -2.79302
F          9.50340       -0.10486       -4.89166
H          5.43562        0.68444        0.24895
H          3.23981        1.03099       -1.77334
H          2.59156        0.17014       -0.39093
H          6.12003       -2.74196       -1.36696
H          4.70890       -4.93400        2.05953
H          3.17473       -0.98003        1.30608
H          4.85579        0.24143       -3.01141
H          5.32506       -1.44436       -2.81699
H          7.35571       -0.66370       -1.47630
H          6.88595        1.00157       -1.82507
H          7.07980        0.55565       -4.29869
H          7.40888       -1.15046       -3.97543
