68

C          2.23385       -0.28177       -0.17056
Si         4.01437        0.27978        0.12951
C          4.29466        2.00343       -0.57369
C          3.39563        2.58834       -1.48433
C          3.64117        3.85916       -2.01679
C          4.78502        4.59251       -1.65237
C          5.67969        4.01783       -0.73108
C          5.44017        2.74555       -0.20974
Nb         4.88285        6.48432       -2.67228
S          5.59255        8.27142       -1.15103
O          6.41441        7.42162       -0.24615
O          6.12493        9.56405       -1.60127
C          4.21399        8.92655        0.07841
C          3.57916        7.88376        1.03954
F          3.14828        6.79520        0.36185
F          4.44934        7.48294        1.98287
F          2.49819        8.41451        1.68045
F          4.77826        9.89661        0.85264
F          3.20981        9.49755       -0.64525
C          5.64494        6.09392       -4.75994
C          7.14729        5.70301       -4.91676
C          7.58181        4.92455       -6.20806
F          7.11496        3.65974       -6.22267
F          7.15504        5.54976       -7.32550
F          8.93891        4.85213       -6.27143
F          7.92690        6.81933       -4.87194
F          7.49669        4.89205       -3.85956
F          4.94850        4.95228       -5.22640
F          5.41092        7.09840       -5.68115
C          4.35921        0.29779        2.00480
C          3.56956        1.35974        2.78324
C          3.82205        1.28772        4.27975
C          3.17107        2.40764        5.16559
C          1.60454        2.62071        5.12671
C          0.68591        1.39349        5.48756
C         -0.80167        1.79669        5.83333
C         -1.82462        0.60164        5.76620
F         -1.37927       -0.45349        6.47534
F         -2.99757        1.00694        6.29257
F         -2.04244        0.21591        4.49777
F         -0.84171        2.29073        7.09620
F         -1.24165        2.74900        4.97213
F          0.65955        0.54468        4.42162
F          1.19172        0.73592        6.55931
F          1.33467        3.61573        6.01803
F          1.26306        3.05350        3.88430
F          3.52323        2.19734        6.46425
F          3.69728        3.60302        4.77482
F          3.40630        0.07599        4.79477
F          5.16894        1.37879        4.54677
C          5.21129       -0.95857       -0.64842
H          1.50364        0.41302        0.26835
H          2.06340       -1.27460        0.27114
H          2.01374       -0.35613       -1.24491
H          2.49253        2.05079       -1.78640
H          2.92292        4.27826       -2.73255
H          6.56066        4.57883       -0.40976
H          6.15876        2.32653        0.50231
H          3.44164        7.44342       -2.39779
H          3.65092        6.61655       -3.90592
H          6.42469        7.28628       -2.92408
H          5.43843        0.45273        2.15739
H          4.13363       -0.70681        2.39766
H          2.48844        1.24379        2.62284
H          3.83645        2.37173        2.44470
H          5.04546       -1.02804       -1.73263
H          5.08719       -1.96368       -0.21878
H          6.25346       -0.64661       -0.49241
