25

C          0.81608       -0.17177        0.14753
O          2.19393        0.11745        0.25418
C          2.84116       -0.71675        1.21360
C          4.30501       -0.31576        1.32010
O          4.89563       -1.18052        2.26330
C          6.29696       -0.87440        2.51294
C          6.87675       -1.82626        3.52624
Al         8.74848       -1.38843        4.11772
C         10.01226       -1.54714        2.47996
F         11.36311       -1.34738        2.70916
F          9.95223       -2.75102        1.79053
F          9.68817       -0.58853        1.50784
I          9.50315       -3.20154        5.87010
H          0.39580        0.50693       -0.60619
H          0.28842       -0.01225        1.10869
H          0.63819       -1.21765       -0.17197
H          2.76699       -1.78060        0.91468
H          2.35575       -0.61348        2.20370
H          4.38199        0.74613        1.63506
H          4.79312       -0.39808        0.32661
H          6.35377        0.17699        2.86157
H          6.83831       -0.92832        1.54885
H          6.85423       -2.85705        3.13746
H          6.25617       -1.81455        4.43873
H          8.93923        0.08568        4.75388
