49

S          4.90819        9.12485        8.35903
Al         6.81604        8.43132        7.28930
C          6.73675        6.48367        6.76324
C          6.30422        6.10935        5.47441
C          6.20798        4.77167        5.07327
C          6.55077        3.72543        5.95206
C          6.99648        4.08727        7.24180
C          7.08455        5.42605        7.62956
Si         6.42445        1.92161        5.47578
C          8.15850        1.12300        5.60365
C          8.19678       -0.36549        5.23191
C          9.56416       -0.99661        5.43458
C          9.67529       -2.53984        5.16695
C          9.32829       -3.11544        3.73593
C         10.13988       -2.56376        2.50276
C         10.04855       -3.48597        1.22412
C         10.49552       -2.78756       -0.11428
F         11.70746       -2.21895        0.02035
F         10.56624       -3.72523       -1.08207
F          9.61072       -1.85260       -0.49678
F         10.84972       -4.56679        1.39985
F          8.76933       -3.90953        1.04592
F          9.64948       -1.33704        2.17808
F         11.44976       -2.44588        2.82865
F          9.54181       -4.46102        3.80767
F          8.00392       -2.91019        3.49831
F         10.93356       -2.95497        5.47614
F          8.80702       -3.17254        6.01527
F         10.52183       -0.38746        4.65500
F          9.97145       -0.85077        6.74145
C          5.26950        0.99827        6.66166
C          5.79366        1.70169        3.70349
Br         8.51465        8.68126        8.94856
H          4.15980        9.04195        7.23242
H          7.12812        9.32955        5.97905
H          6.03797        6.88887        4.75134
H          5.86233        4.54206        4.05988
H          7.28150        3.30921        7.95959
H          7.44461        5.66125        8.63592
H          8.51582        1.26621        6.63498
H          8.84401        1.69364        4.95850
H          7.91321       -0.51043        4.17982
H          7.48603       -0.94686        5.83862
H          5.61020        1.10937        7.70118
H          5.20064       -0.07695        6.43827
H          4.25557        1.41899        6.60387
H          6.46751        2.17177        2.97300
H          4.80052        2.15710        3.58179
H          5.70072        0.63708        3.44206
