26

C          0.80591       -2.67299        0.04472
C          2.26852       -2.80606        0.49461
C          3.16834       -1.63556        0.06706
Al         5.06582       -1.78949        0.70407
S          6.06010        0.37232        0.06114
O          5.28032        1.55590        0.43094
O          7.51483        0.46538        0.20783
F          5.86057        0.31065       -1.64794
C          6.24720       -3.16423       -0.15651
C          6.09845       -3.37637       -1.66959
C          7.03209       -4.44994       -2.24666
H          0.19047       -3.53363        0.35729
H          0.74271       -2.59263       -1.05187
H          0.35172       -1.76177        0.46422
H          2.67180       -3.75589        0.09853
H          2.29109       -2.91435        1.59390
H          2.74975       -0.69042        0.45737
H          3.14768       -1.53738       -1.03322
H          5.24905       -1.68399        2.31593
H          6.06615       -4.12335        0.36923
H          7.29488       -2.90158        0.07933
H          6.27888       -2.42407       -2.19484
H          5.05471       -3.64957       -1.90668
H          8.08616       -4.18159       -2.07420
H          6.89222       -4.58629       -3.33204
H          6.85951       -5.42357       -1.75944
