16

S          1.48056        0.27267       -1.55235
Al         2.83331       -0.40784        0.11017
S          4.30952        1.41484        0.91884
O          5.20946        0.84107        1.94373
O          4.91814        2.23888       -0.14014
C          3.32762        2.82960        1.90331
C          2.76458        2.49521        3.30573
F          3.74460        2.21491        4.18431
F          2.05901        3.55375        3.81107
F          1.92053        1.44404        3.24567
F          4.18058        3.88250        2.04632
F          2.27647        3.22980        1.12463
S          4.40614       -1.74105       -0.78432
H          0.42564        0.37370       -0.70928
H          2.08062       -0.83219        1.45737
H          5.21670       -1.62353        0.29562
