60

F          4.50790       -5.59774        6.24464
C          4.02294       -6.46238        5.30031
C          3.46622       -5.73994        4.09250
C          4.50251       -4.89046        3.34776
Si         3.78635       -3.89752        1.88180
C          2.92854       -5.04491        0.66891
C          1.54447       -5.31868        0.76321
C          0.91069       -6.19435       -0.11880
C          1.60764       -6.83805       -1.16215
C          2.98739       -6.54773       -1.25435
C          3.64080       -5.68905       -0.36036
Nb         1.02131       -8.22248       -2.75652
C         -0.33560       -7.80809       -4.48682
C         -0.30533       -6.40697       -5.14560
C          1.13808       -5.88746       -5.44820
F          1.97450       -6.19700       -4.39777
F          1.66124       -6.43211       -6.55599
F          1.16115       -4.54811       -5.58875
F         -0.99390       -6.32821       -6.33490
F         -0.88550       -5.51144       -4.28838
F          0.42621       -8.64187       -5.39565
F         -1.63849       -8.22546       -4.60402
C          2.04570      -10.17008       -2.69854
C          3.11135      -10.38110       -1.79066
C          3.91238      -11.52723       -1.84176
C          3.67344      -12.52648       -2.79378
C          2.62376      -12.34457       -3.69427
C          1.82894      -11.18812       -3.64880
C          2.30529      -13.41056       -4.70623
F          3.25774      -14.38794       -4.77210
F          1.12447      -14.04733       -4.43385
F          2.17850      -12.90933       -5.97029
C          5.04385      -11.73522       -0.87479
F          5.23846      -10.68467       -0.03689
F          4.85560      -12.83738       -0.08082
F          6.23875      -11.94711       -1.51764
C          2.56839       -2.61929        2.56567
C          5.22870       -2.99175        1.06082
F          5.04455       -7.30581        4.98749
F          3.06839       -7.21458        5.92331
H          2.63085       -5.12774        4.46482
H          3.03463       -6.50573        3.43142
H          5.30365       -5.54061        2.96222
H          4.97947       -4.18063        4.04370
H          0.94821       -4.83504        1.54387
H         -0.15779       -6.39216       -0.00386
H          3.60012       -7.00120       -2.04982
H          4.71372       -5.50976       -0.48301
H         -0.23425       -9.40813       -2.74741
H          0.56098       -8.96552       -1.27239
H         -0.48437       -7.81668       -2.00034
H          3.31375       -9.64336       -1.01055
H          4.28916      -13.42393       -2.82915
H          1.00971      -11.08682       -4.36485
H          1.72454       -3.08486        3.09420
H          2.14902       -2.01106        1.75187
H          3.07157       -1.94247        3.27187
H          5.97762       -3.69320        0.66689
H          5.73587       -2.32986        1.77799
H          4.87418       -2.37694        0.22155
