31

N          0.82314        2.52511       -0.20015
C          2.21477        2.43833       -0.72678
C          3.05723        1.40294        0.00430
B          4.62226        1.32665       -0.51136
C          5.35570       -0.01786        0.05274
O          4.69791       -1.26339       -0.49086
C          5.21203       -2.41634       -0.14775
F          5.22688       -2.67226        1.21459
F          4.49136       -3.42959       -0.71455
F          6.52547       -2.61373       -0.54582
C          5.49677        2.62433        0.02629
C          6.85207        2.85228       -0.65556
C          7.63023        4.05286       -0.12085
N          8.91819        4.23118       -0.83038
H          0.37077        3.37522       -0.54826
H          0.88000        2.63705        0.81547
H          2.72743        3.42068       -0.69069
H          2.14782        2.16127       -1.79223
H          2.55887        0.42206       -0.09745
H          3.03511        1.64275        1.09138
H          4.65333        1.30230       -1.75456
H          5.29454       -0.11100        1.15268
H          6.41613       -0.09542       -0.23815
H          5.66114        2.54800        1.12316
H          4.89415        3.54393       -0.10737
H          6.70217        2.97700       -1.74111
H          7.48813        1.95292       -0.54269
H          7.75474        3.93297        0.97519
H          7.03410        4.96946       -0.27156
H          9.42814        3.34499       -0.80482
H          9.50425        4.90622       -0.33520
