15

N          1.06021       -0.06664        0.07637
C          2.52625       -0.02485       -0.15415
C          3.03793       -1.32886       -0.76144
C          4.56330       -1.46347       -0.63511
N          5.00111       -2.46800       -1.51536
O          6.52065       -2.45262       -1.32667
H          0.76956        0.76773        0.59571
H          0.86072       -0.85812        0.69899
H          3.09705        0.17433        0.77594
H          2.72550        0.81522       -0.84156
H          2.75558       -1.39717       -1.82476
H          2.55982       -2.18559       -0.25266
H          4.76541       -1.64891        0.47802
H          5.03835       -0.44360       -0.81002
H          6.75626       -3.04135       -2.05749
