35

N          8.33654       -2.62266        5.45396
C          7.28841       -1.70086        5.20462
N          6.25278       -1.51209        5.95728
N          7.49272       -0.97660        4.05819
C          6.65525        0.16142        3.67848
C          6.96253        0.56589        2.23708
C          6.30434        1.87373        1.78649
C          6.93229        3.15170        2.40606
C          8.43712        3.26709        2.30268
S          9.13495        3.70238        0.84434
O         10.60570        3.54627        0.90536
O          8.40243        3.09253       -0.28649
C          8.92841        5.49351        0.50774
C          9.27087        3.39620        3.52956
C          9.02031        4.59747        4.45365
O          8.55872        5.67298        4.15118
O          9.40763        4.38901        5.77194
H          8.07197       -3.33197        6.13108
H          8.70793       -3.05427        4.60887
H          6.22612       -2.20759        6.70852
H          8.45523       -0.91238        3.73974
H          6.82004        1.00733        4.36888
H          5.60599       -0.14334        3.80083
H          6.66988       -0.26064        1.56887
H          8.05249        0.71309        2.11908
H          5.21948        1.85362        2.00374
H          6.41986        1.94905        0.69638
H          6.66698        3.20208        3.47765
H          6.40238        4.01556        1.95525
H          9.42209        6.05855        1.30690
H          7.85470        5.72121        0.49173
H          9.37667        5.71548       -0.47015
H         10.33202        3.47131        3.22632
H          9.22096        2.48769        4.18135
H          9.71301        3.46400        5.82896
