60

O          2.77881        0.65530        0.61445
C          2.06955       -0.19014       -0.19429
O          0.85713       -0.13818       -0.20428
C          2.90372       -1.15237       -1.03497
C          4.41628       -1.12209       -0.86840
P          5.29404       -2.47786       -2.04005
C          5.01748       -1.32634       -3.62952
C          5.40407        0.01329       -3.76890
C          5.13081        0.73244       -4.94122
C          4.45606        0.12654       -6.00629
C          4.06737       -1.20910       -5.87810
C          4.35189       -1.92127       -4.70332
C          3.38117       -1.90440       -7.02050
F          2.84878       -1.03640       -7.93102
F          4.23753       -2.71269       -7.72418
F          2.36194       -2.70883       -6.60588
C          5.52819        2.17620       -5.07863
F          6.37846        2.59163       -4.10341
F          6.14813        2.43331       -6.27389
F          4.44777        3.02041       -5.03509
C          7.07829       -1.77812       -1.70804
C          7.53986       -1.43651       -0.42907
C          8.86469       -1.04388       -0.20609
C          9.79320       -0.97013       -1.26316
C          9.33184       -1.33239       -2.54706
C          8.01031       -1.73350       -2.75541
Si        11.55890       -0.39141       -1.00015
C         12.73763       -1.40582       -2.10572
C         12.64034       -2.92080       -1.89759
C         13.59698       -3.71750       -2.75710
F         14.90557       -3.39774       -2.51698
F         13.48117       -5.05987       -2.53218
F         13.39083       -3.52563       -4.09071
C         11.77746        1.42397       -1.48813
C         12.08276       -0.61289        0.80644
H          3.72501        0.44298        0.45903
H          2.62394       -0.96011       -2.08478
H          2.50863       -2.15976       -0.82541
H          4.70330       -1.39212        0.16089
H          4.83041       -0.12785       -1.10290
H          5.90872       -3.47320       -2.95512
H          3.96789       -3.06634       -2.34394
H          5.46085       -3.38302       -0.87874
H          5.94767        0.50912       -2.96249
H          4.23818        0.68403       -6.91624
H          4.04290       -2.96813       -4.60773
H          6.85782       -1.49496        0.42366
H          9.17640       -0.79170        0.81224
H         10.01429       -1.30202       -3.40344
H          7.68901       -2.02784       -3.75988
H         13.76640       -1.06115       -1.91190
H         12.52376       -1.16136       -3.15836
H         11.62752       -3.28566       -2.12402
H         12.85786       -3.20056       -0.85581
H         11.47582        1.58543       -2.53265
H         12.82285        1.74969       -1.37934
H         11.15075        2.07353       -0.86072
H         11.99262       -1.65880        1.13256
H         11.46080       -0.00456        1.47837
H         13.12750       -0.29933        0.94802
