25

N          3.12336       -1.73348       -0.51270
C          2.63927       -0.42152       -0.00879
In         3.35712       -0.04019        2.11621
C          1.93628       -1.25136        3.47067
C          1.33302       -2.54183        2.92752
S          2.63694       -3.78185        2.53837
C          1.59520       -5.21175        2.12731
C          5.41087       -0.98145        2.21696
N          6.00597       -1.13796        0.86613
H          2.61397       -2.03898       -1.34799
H          2.98790       -2.46351        0.19174
H          1.53449       -0.32371       -0.05021
H          3.04908        0.37088       -0.65643
H          3.22615        1.67680        2.60669
H          1.10315       -0.55972        3.68126
H          2.43060       -1.45091        4.43615
H          0.77465       -2.35663        1.99423
H          0.64556       -3.05333        3.63237
H          2.26461       -6.05182        1.89848
H          0.96529       -5.01584        1.24677
H          0.95189       -5.49514        2.97432
H          5.29084       -1.94421        2.75438
H          6.07918       -0.35691        2.83487
H          5.28229       -1.43284        0.20162
H          6.71343       -1.87909        0.86104
