20

O          1.41072       -0.88630       -0.47744
C          2.35359       -0.08864       -0.24525
O          2.68677        0.97552       -0.81632
C          3.33340       -0.52948        0.96949
C          2.92622        0.16747        2.29948
C          1.43632        0.15105        2.82808
C          0.73388       -1.20526        3.19800
F          1.50037       -1.95078        4.03134
F         -0.42181       -0.92274        3.86032
F          0.41281       -1.94653        2.13372
F          1.43659        0.86441        4.00917
F          0.62079        0.79950        1.96270
F          3.67447       -0.35661        3.35293
F          3.22516        1.50516        2.25017
N          3.28316       -1.97394        1.08279
N          4.71227       -0.07163        0.71608
H          2.38299       -2.25628        0.67776
H          3.38865       -2.31015        2.03862
H          4.59925        0.71047        0.05623
H          5.14361       -0.83848        0.19680
