47

C          0.79659        0.04001        1.48417
C          2.29868        0.05173        1.18768
C          2.85578       -1.32052        0.79463
C          4.36089       -1.31805        0.50949
C          4.92884       -2.68842        0.12573
C          6.43288       -2.66277       -0.18902
C          7.07777       -3.99964       -0.47427
C          6.50597       -4.74268       -1.63426
C          6.69247       -4.02501       -3.08131
C          6.18051       -4.88470       -4.17781
O          5.01749       -4.87709       -4.60941
N          7.10027       -5.82518       -4.67568
C          8.58135       -3.92291       -0.49687
C          9.25047       -3.82833        0.89817
C          8.89874       -5.07020        1.72359
C          9.23368       -4.98079        3.18140
C          8.86982       -6.24790        4.01246
F          7.54104       -6.49264        3.97428
F          9.50826       -7.34494        3.53104
F          9.22338       -6.11107        5.31512
F         10.59886       -4.78040        3.40322
F          8.59089       -3.92844        3.80096
H          0.42599        1.03729        1.76445
H          0.56169       -0.64806        2.31068
H          0.22243       -0.29514        0.60682
H          2.84535        0.42384        2.07122
H          2.50866        0.77178        0.37819
H          2.31641       -1.69016       -0.09582
H          2.63746       -2.04429        1.60051
H          4.89621       -0.94037        1.40025
H          4.57470       -0.59596       -0.29910
H          4.37122       -3.07527       -0.74480
H          4.75554       -3.40902        0.94421
H          6.94136       -2.18541        0.66913
H          6.57605       -1.92353       -1.03417
H          5.42245       -4.92125       -1.53928
H          6.98199       -5.73729       -1.72592
H          7.76480       -3.80787       -3.20585
H          6.13568       -3.07911       -3.06968
H          7.87531       -6.06398       -4.06285
H          6.65494       -6.62793       -5.11406
H          8.98922       -3.05516       -1.09166
H          8.98628       -4.82469       -0.99875
H          8.87983       -2.93103        1.41746
H         10.34282       -3.71612        0.80161
H          9.40063       -5.96244        1.31656
H          7.80386       -5.21265        1.58622
