32

C          0.66013       -0.01625        0.00316
C          2.17822       -0.20733       -0.04867
C          2.85171        0.57805       -1.17817
C          4.37570        0.42828       -1.22250
C          5.04685        1.22679       -2.35109
C          6.57598        1.14371       -2.38114
Ga         7.38748        2.19849       -3.90506
C          7.06905        4.19456       -3.78216
C          7.74696        4.91266       -2.58026
C          8.94858        5.75000       -2.98753
O          8.99456        6.96589       -2.87407
O          9.99947        5.08763       -3.51568
Cl         9.72356        2.02439       -3.52144
H          0.20161       -0.59331        0.81977
H          0.18780       -0.33589       -0.93842
H          0.40070        1.04258        0.15571
H          2.41245       -1.27968       -0.16247
H          2.62079        0.09702        0.91526
H          2.59713        1.64845       -1.07521
H          2.42459        0.26065       -2.14645
H          4.63957       -0.63925       -1.32968
H          4.80221        0.74903       -0.25524
H          4.73234        2.28312       -2.25964
H          4.63198        0.88045       -3.31633
H          6.89984        0.09384       -2.47994
H          6.99308        1.50895       -1.42696
H          7.15063        1.56273       -5.35037
H          5.97743        4.33157       -3.70462
H          7.35919        4.67732       -4.72769
H          8.08754        4.17930       -1.82681
H          7.05883        5.60312       -2.07422
H          9.85234        4.09612       -3.51749
