90

C          1.48786        0.62157        1.55356
C          2.04668       -0.17920        0.37263
C          2.77373       -1.46458        0.76566
As         1.49578       -3.01372        1.45539
C          3.08823       -4.07459        2.31571
C          3.88189       -3.62481        3.37752
C          4.76354       -4.48333        4.04350
C          4.86689       -5.82496        3.63966
C          4.08950       -6.28808        2.56366
C          3.21377       -5.41189        1.92333
C          5.79625       -6.75499        4.35816
C          5.39039       -7.21434        5.81350
C          3.99806       -7.90951        6.06690
C          3.64370       -9.31311        5.42367
C          4.58076      -10.54251        5.72560
C          3.91688      -11.94186        5.42595
F          3.36638      -11.97166        4.19868
F          4.87561      -12.89172        5.48592
F          2.97376      -12.24522        6.33536
F          5.69434      -10.45875        4.95987
F          4.94274      -10.55622        7.03549
F          2.40452       -9.62480        5.91089
F          3.54486       -9.17607        4.08099
F          3.89286       -8.06801        7.42119
F          3.01337       -7.06932        5.66766
F          6.35210       -8.05964        6.29868
F          5.37895       -6.10802        6.61246
F          6.01966       -7.91368        3.64705
F          7.04062       -6.17074        4.54939
C         -0.35744       -2.37433        0.72153
C         -0.74288       -2.67337       -0.59050
C         -2.08276       -2.60701       -0.98783
C         -3.09860       -2.23352       -0.08336
C         -2.69680       -1.89347        1.22657
C         -1.35477       -1.96052        1.61304
Si        -4.90916       -2.28738       -0.58060
C         -5.14127       -3.64230       -1.90251
C         -6.58802       -4.03477       -2.23880
C         -6.68924       -5.13224       -3.30647
C         -8.12100       -5.59374       -3.59466
C         -8.20820       -6.69458       -4.65673
C         -9.63360       -7.18441       -4.92763
C         -9.71636       -8.27966       -5.99563
C        -11.14287       -8.77025       -6.25373
C         -5.98579       -2.69642        0.92531
C         -5.49931       -0.62750       -1.28736
C          3.62427       -2.01530       -0.36659
H          0.99150        1.54370        1.21388
H          2.29384        0.90683        2.24886
H          0.75648        0.03426        2.12372
H          2.73747        0.47192       -0.20259
H          1.22282       -0.42023       -0.32234
H          3.40307       -1.27421        1.65280
H          0.62416       -4.26401        2.00276
H          1.25708       -2.22798        2.85004
H          1.73844       -3.82863        0.06712
H          3.80149       -2.58500        3.71064
H          5.37465       -4.11527        4.86969
H          4.17261       -7.32556        2.23846
H          2.58699       -5.77652        1.10056
H          0.01512       -3.01864       -1.30302
H         -2.34185       -2.88064       -2.01625
H         -3.44737       -1.60103        1.96860
H         -1.07902       -1.73665        2.65135
H         -4.58934       -4.53281       -1.55537
H         -4.62402       -3.31733       -2.82248
H         -7.15435       -3.15005       -2.58047
H         -7.09955       -4.38345       -1.32492
H         -6.08635       -5.99955       -2.98442
H         -6.22295       -4.77268       -4.24087
H         -8.72929       -4.72905       -3.91487
H         -8.58044       -5.95603       -2.65769
H         -7.58407       -7.55015       -4.34367
H         -7.76413       -6.32697       -5.59884
H        -10.26265       -6.32977       -5.23471
H        -10.07466       -7.56050       -3.98728
H         -9.08323       -9.13021       -5.69116
H         -9.28067       -7.90098       -6.93584
H        -11.58849       -9.19343       -5.34079
H        -11.17048       -9.54867       -7.02952
H        -11.79255       -7.94600       -6.58498
H         -5.70550       -3.66593        1.36100
H         -7.05122       -2.73654        0.65482
H         -5.87321       -1.93567        1.71108
H         -4.90148       -0.34188       -2.16491
H         -5.38886        0.17089       -0.53931
H         -6.55682       -0.66254       -1.59057
H          3.01245       -2.21753       -1.26123
H          4.10358       -2.96659       -0.08770
H          4.42204       -1.31068       -0.66537
