34

O          2.35800        1.86529        1.51818
C          2.29697        0.81304        0.66041
O          1.43186        0.75770       -0.19504
C          3.35955       -0.23138        0.87437
Ta         5.46461        0.22014        1.11123
C          6.29218        0.38528       -0.99230
C          7.76387        0.56948       -1.45110
C          8.74683       -0.52671       -0.92073
C         10.23687       -0.41260       -1.40862
F         10.33732       -0.59873       -2.73877
F         10.77956        0.78025       -1.09883
F         10.96836       -1.37497       -0.79867
F          8.77687       -0.45584        0.44240
F          8.32136       -1.76265       -1.28613
F          7.85064        0.57127       -2.82454
F          8.22338        1.77897       -1.01596
F          5.80014       -0.71197       -1.72159
F          5.61092        1.48352       -1.54510
C          6.47208       -0.20996        3.00034
C          5.71852       -0.95039        4.11464
C          5.59320       -2.47206        4.01457
O          5.39810       -3.16123        5.00115
O          5.68796       -3.04070        2.79765
H          3.24984        1.79358        1.97438
H          3.26516       -1.02061        0.10970
H          3.20790       -0.69891        1.87024
H          4.70343        1.45587        2.25315
H          6.02178       -1.53531        0.89106
H          6.25833        1.80706        0.97010
H          6.70441        0.80930        3.35196
H          7.43385       -0.70744        2.78547
H          4.68724       -0.56468        4.20898
H          6.17529       -0.77438        5.10126
H          5.83767       -2.35911        2.06411
