68

C          9.95058       -3.30269        5.01687
C          9.31805       -2.56129        3.83698
C          9.81402       -3.05921        2.47611
C          9.19422       -2.32424        1.28446
C          9.68268       -2.83737       -0.07324
C          9.06058       -2.11225       -1.27006
C          9.52145       -2.66688       -2.62302
C          8.87425       -1.98145       -3.83629
Si         9.28030       -2.79101       -5.51197
C          8.78943       -4.60047       -5.44138
C          7.58339       -4.99162       -4.82305
C          7.21788       -6.33685       -4.72199
C          8.02296       -7.37077       -5.24104
C          9.21420       -6.96931       -5.87612
C          9.59683       -5.62654       -5.96909
Ga         7.60465       -9.34291       -5.06300
C          5.61975       -9.53736       -5.77507
C          4.85360      -10.87944       -5.59894
C          4.10244      -11.06830       -4.23823
F          4.86636      -10.73224       -3.18298
F          2.96685      -10.33886       -4.19108
F          3.74536      -12.37388       -4.08864
F          3.89101      -11.07752       -6.56752
F          5.74299      -11.91675       -5.71705
F          4.74093       -8.54427       -5.29559
F          5.65664       -9.33781       -7.15797
C          7.91114      -10.06764       -3.19508
C          9.40260      -10.08154       -2.84355
C          9.73158      -10.84822       -1.56120
N         11.17979      -10.80760       -1.26452
C          8.32136       -1.86484       -6.86177
C         11.13292       -2.61533       -5.87532
H          9.57571       -2.92942        5.98076
H         11.04510       -3.18718        5.01689
H          9.73453       -4.38042        4.96918
H          9.52352       -1.48071        3.92572
H          8.22055       -2.66508        3.88161
H          9.60391       -4.13940        2.38650
H         10.91359       -2.96226        2.43303
H          9.41054       -1.24399        1.36864
H          8.09466       -2.41712        1.33244
H          9.46515       -3.91644       -0.15337
H         10.78251       -2.74767       -0.12281
H          9.29331       -1.03343       -1.21192
H          7.96029       -2.18906       -1.20942
H          9.30133       -3.74680       -2.65676
H         10.62039       -2.58278       -2.68977
H          9.15669       -0.91402       -3.87193
H          7.77561       -1.99408       -3.72083
H          6.91533       -4.23156       -4.40174
H          6.27412       -6.58438       -4.22771
H          9.86745       -7.73318       -6.31068
H         10.54414       -5.37728       -6.45841
H          8.50066      -10.15463       -6.11421
H          7.51778      -11.09778       -3.16657
H          7.34832       -9.49370       -2.44031
H          9.79002       -9.05329       -2.74886
H          9.97334      -10.54337       -3.67221
H          9.33699      -11.88007       -1.66446
H          9.19962      -10.38942       -0.71080
H         11.69367      -11.14514       -2.08220
H         11.40436      -11.45246       -0.50461
H          7.23725       -1.95252       -6.70114
H          8.54275       -2.28527       -7.85327
H          8.57805       -0.79454       -6.87975
H         11.74359       -3.13284       -5.12240
H         11.42762       -1.55517       -5.88335
H         11.38782       -3.03811       -6.85773
