24

O          1.64053       -0.20740        0.38750
Nb         3.26919        0.29763       -0.59084
C          4.91430       -1.19407       -0.07053
C          6.30301       -1.22640       -0.74932
F          6.25148       -1.69396       -2.01259
F          6.83436        0.02877       -0.78425
F          7.21070       -2.01119       -0.08515
F          5.25573       -1.01354        1.33037
F          4.43701       -2.50169       -0.12367
C          3.95872        2.19517        0.26187
C          3.85183        2.00743        1.80005
C          5.06962        2.55511        2.52793
O          5.15654        3.71162        2.94760
N          6.09812        1.65572        2.66505
H          0.85350       -0.48077       -0.10054
H          3.38114        1.47049       -1.90164
H          3.95733       -0.41170       -2.06048
H          2.18723        0.02891       -1.94009
H          3.57472        3.17409       -0.04451
H          5.01510        2.15024       -0.07740
H          3.73135        0.94147        2.07827
H          2.96492        2.53418        2.17324
H          6.05942        0.75269        2.20125
H          6.99996        2.01603        2.95357
