35

C          2.07357       -0.83571        2.46772
C          2.00261       -0.29781        1.03437
In         3.53691        1.22355        0.47331
S          2.26158        3.62522        1.09431
O          3.13622        4.56156        1.84420
O          1.48842        4.19535       -0.03332
C          0.83721        3.31675        2.39804
F          1.30301        2.70172        3.52299
F          0.26774        4.48451        2.78261
F         -0.15036        2.52691        1.89451
C          5.44624        1.29340        1.65126
C          5.55797        2.23036        2.86501
C          4.74108        1.82862        4.10263
C          5.24948        0.58429        4.84120
C          4.47814        0.28924        6.13254
C          5.01553       -0.91628        6.90897
H          1.31911       -1.61942        2.66765
H          1.90558       -0.03904        3.20760
H          3.05802       -1.27508        2.69496
H          1.01569        0.14649        0.83761
H          2.11923       -1.11937        0.30813
H          3.72140        1.54226       -1.25543
H          6.19990        1.57999        0.90079
H          5.68168        0.25289        1.93466
H          5.24567        3.24397        2.57279
H          6.61914        2.31237        3.18041
H          3.68738        1.67935        3.81594
H          4.74028        2.67562        4.81125
H          6.32032        0.71962        5.08429
H          5.19577       -0.29813        4.18082
H          3.41466        0.12792        5.88983
H          4.50678        1.18302        6.77991
H          4.96473       -1.83417        6.30354
H          4.44433       -1.09508        7.83233
H          6.06931       -0.76830        7.19267
