38

C          0.85218       -5.59826       -1.68401
C          2.34565       -5.61836       -1.34449
C          2.97947       -4.22686       -1.22314
C          4.45336       -4.25200       -0.77420
C          5.13980       -2.89004       -0.64655
In         7.25881       -2.99587        0.18512
C          8.26636       -0.97019       -0.10351
C          8.67294       -0.59913       -1.53392
C          9.41528        0.74469       -1.67329
C          9.82560        1.09521       -3.10931
C          8.35695       -4.53463       -1.07952
C          8.07992       -4.44350       -2.58744
H          0.43438       -6.61398       -1.76494
H          0.66659       -5.08472       -2.64023
H          0.27925       -5.06375       -0.91026
H          2.88977       -6.19670       -2.11123
H          2.49676       -6.16292       -0.39627
H          2.39769       -3.62183       -0.50353
H          2.90036       -3.70041       -2.19217
H          5.01753       -4.88676       -1.48250
H          4.50026       -4.78703        0.19285
H          4.54692       -2.23040        0.01217
H          5.17329       -2.39309       -1.63319
H          7.23034       -3.44661        1.92658
H          9.16198       -0.96261        0.54407
H          7.59116       -0.19421        0.30084
H          7.78011       -0.56886       -2.18671
H          9.31807       -1.38906       -1.96168
H         10.31347        0.71758       -1.03139
H          8.77892        1.54890       -1.26406
H         10.47730        0.31665       -3.53640
H         10.37141        2.05089       -3.16312
H          8.94562        1.17816       -3.76646
H          8.08065       -5.53624       -0.70849
H          9.43932       -4.43035       -0.89057
H          7.00420       -4.53820       -2.80944
H          8.59561       -5.22139       -3.18779
H          8.39159       -3.47068       -3.00097
