60

N          0.60338        2.17624        1.35022
C          2.03466        2.49465        1.09629
C          2.87032        1.25011        0.83325
B          4.44212        1.56167        0.44920
C          5.26681        0.22355        0.03612
C          4.79289       -1.09616        0.21653
C          5.53486       -2.22497       -0.13267
C          6.81666       -2.07941       -0.68685
C          7.32654       -0.78333       -0.88210
C          6.56163        0.32328       -0.52619
C          7.61358       -3.28496       -1.06249
C          7.22017       -4.03151       -2.39554
C          7.26684       -3.26547       -3.77229
C          8.63310       -2.74153       -4.38379
C          9.79845       -3.77294       -4.62333
C         10.91822       -3.26208       -5.60942
F         11.36418       -2.04197       -5.25831
F         11.95613       -4.12553       -5.55973
F         10.47700       -3.21623       -6.87942
F         10.40723       -4.05001       -3.44637
F          9.31053       -4.92453       -5.15575
F          8.29929       -2.22406       -5.60629
F          9.11087       -1.73135       -3.62094
F          6.73529       -4.11716       -4.70147
F          6.46366       -2.17711       -3.69775
F          8.00328       -5.14714       -2.54073
F          5.92956       -4.45459       -2.26998
F          8.96161       -3.00631       -1.17153
F          7.49847       -4.28243       -0.10369
C          5.26774        2.35009        1.65667
C          5.31377        1.62282        3.00624
C          6.12990        2.34755        4.08248
C          6.13114        1.63465        5.43339
N          6.93038        2.37046        6.40826
C          7.06217        1.95633        7.71770
N          6.63890        0.86148        8.25680
N          7.75206        2.89066        8.51615
H          0.12329        2.99630        1.73041
H          0.56175        1.46382        2.08362
H          2.48436        3.06781        1.93222
H          2.07388        3.15241        0.21138
H          2.38427        0.68390        0.01646
H          2.79320        0.59639        1.72995
H          4.46878        2.30699       -0.54805
H          3.80018       -1.24566        0.64869
H          5.12765       -3.22371        0.03630
H          8.32270       -0.65006       -1.30611
H          6.97824        1.32097       -0.69394
H          4.82711        3.35335        1.81454
H          6.30815        2.53985        1.32877
H          5.73232        0.60983        2.86543
H          4.28538        1.47163        3.38152
H          5.72512        3.36858        4.21514
H          7.17099        2.46696        3.73682
H          6.55705        0.62365        5.32153
H          5.08937        1.50911        5.78852
H          6.95436        3.37646        6.26603
H          6.05141        0.33826        7.60247
H          8.58594        3.26594        8.06897
H          7.97173        2.47366        9.41742
