48

F          6.81642        5.64071        3.11142
C          5.65735        6.21268        2.68067
C          4.65376        5.19339        2.18523
C          4.22490        4.16828        3.24135
Si         2.97174        2.87803        2.60264
C          2.47939        1.74146        4.01212
C          2.05022        2.26592        5.24813
C          1.64047        1.43435        6.29530
C          1.63280        0.03443        6.14981
C          2.06484       -0.49058        4.91876
C          2.48249        0.34065        3.87360
In         0.96369       -1.32611        7.73864
S          0.12357        0.30733        9.71558
O          0.13924       -0.27928       11.06805
O          0.63919        1.68560        9.55755
C         -1.76953        0.55690        9.38562
F         -1.98039        0.95510        8.10212
F         -2.46665       -0.58971        9.57556
F         -2.28501        1.50039       10.20505
C          2.68278       -2.49815        8.71744
C          3.92745       -1.68764        9.14874
C          5.09950       -2.42869        9.87653
F          4.71212       -2.92592       11.06701
F          5.58125       -3.44488        9.12749
F          6.12515       -1.56723       10.10459
F          4.47298       -1.11137        8.03167
F          3.52232       -0.69166        9.99156
F          2.25066       -3.21660        9.82119
F          3.12164       -3.45545        7.79308
C          1.45270        3.79246        1.93473
C          3.77602        1.90075        1.19476
F          5.17793        6.96043        3.71354
F          6.00357        7.09382        1.69020
H          5.11931        4.70623        1.31504
H          3.79381        5.76893        1.81070
H          3.78192        4.68541        4.10688
H          5.10424        3.62684        3.62386
H          2.03239        3.34927        5.40814
H          1.32502        1.88599        7.23946
H          2.08369       -1.57257        4.75626
H          2.81434       -0.11673        2.93680
H         -0.36643       -2.43091        7.50391
H          0.97736        4.39102        2.72512
H          0.70502        3.07045        1.57661
H          1.69924        4.46352        1.09855
H          4.67137        1.36500        1.54076
H          4.07537        2.56296        0.36924
H          3.08074        1.15716        0.77994
