41

N          3.43020       -2.61421       -0.72073
C          2.48997       -1.65529       -1.35452
C          2.88008       -0.20686       -1.08359
In         5.01682        0.50340       -1.46660
C          6.22099        0.33986        0.47377
C          6.15178       -0.93766        1.32345
C          6.69675       -2.21892        0.66748
C          8.20020       -2.19643        0.37265
C          8.72940       -3.52909       -0.16860
C         10.22428       -3.50704       -0.49947
C          6.12957       -0.72586       -3.03816
C          5.38707       -1.84285       -3.76494
S          4.12017       -1.15144       -4.90030
C          3.56074       -2.68188       -5.69945
H          2.97450       -3.51845       -0.57699
H          3.67910       -2.26825        0.20867
H          1.44491       -1.85629       -1.01969
H          2.50900       -1.84100       -2.44223
H          2.64042        0.04682       -0.03367
H          2.25198        0.44945       -1.70674
H          4.96092        2.24496       -1.91022
H          5.86822        1.18804        1.08573
H          7.27174        0.57651        0.23002
H          5.09962       -1.12885        1.60689
H          6.68694       -0.81262        2.29209
H          6.14325       -2.41289       -0.26600
H          6.48923       -3.07802        1.33439
H          8.75394       -1.93446        1.29435
H          8.42132       -1.39843       -0.35500
H          8.15809       -3.80157       -1.07184
H          8.52739       -4.32671        0.56847
H         10.44671       -2.75069       -1.26718
H         10.57499       -4.47947       -0.87776
H         10.82539       -3.25903        0.38959
H          6.94341       -1.19444       -2.45924
H          6.61218       -0.05645       -3.76901
H          4.87322       -2.50302       -3.04712
H          6.04479       -2.46971       -4.40086
H          2.78547       -2.41174       -6.42882
H          3.12815       -3.38143       -4.96839
H          4.38571       -3.18225       -6.22957
