82

C         19.54203       -4.65089        5.61291
C         18.34712       -4.05004        4.86871
C         17.05253       -4.84900        5.05130
C         15.85463       -4.25599        4.30348
C         14.55989       -5.05874        4.46664
C         13.37826       -4.47764        3.68387
C         12.08403       -5.29157        3.81116
C         10.93082       -4.74598        2.95568
Si         9.29065       -5.71274        3.03567
C          8.45721       -5.52121        4.70974
C          8.08965       -4.24361        5.17918
C          7.40425       -4.08031        6.38769
C          7.04498       -5.17372        7.20231
C          7.43032       -6.44483        6.73332
C          8.11433       -6.61810        5.52365
In         5.89958       -4.86517        9.09235
C          5.52248       -6.95861       10.04899
C          6.68110       -7.71167       10.73267
F          7.69383       -7.94041        9.85347
F          7.18753       -6.99342       11.76459
F          6.32514       -8.93217       11.24104
F          4.53135       -6.86596       11.03871
F          5.01400       -7.86839        9.10781
C          7.16814       -3.77424       10.56741
C          8.44428       -3.27810       10.23928
C          9.25117       -2.62343       11.17676
C          8.82262       -2.43703       12.50649
C          7.54878       -2.93700       12.84504
C          6.74810       -3.58253       11.89776
Si         9.86599       -1.50470       13.75028
C          9.56431        0.36796       13.50817
C         10.22752        1.27064       14.55399
C         10.02304        2.75089       14.31281
F          8.70689        3.10249       14.28235
F         10.60338        3.50604       15.29861
F         10.56918        3.16912       13.13537
C          9.39417       -1.96450       15.52632
C         11.71226       -1.84790       13.50374
C          8.16283       -5.00754        1.68376
C          9.62131       -7.53827        2.65020
H         20.45516       -4.05771        5.46128
H         19.74909       -5.67578        5.26947
H         19.35185       -4.69950        6.69559
H         18.57996       -3.98096        3.79229
H         18.18360       -3.01359        5.20939
H         16.81553       -4.91708        6.12767
H         17.21647       -5.88755        4.71240
H         16.10058       -4.18014        3.22903
H         15.68701       -3.22029        4.64816
H         14.29761       -5.11875        5.53721
H         14.73464       -6.09930        4.13955
H         13.65301       -4.40520        2.61586
H         13.18939       -3.44214        4.01780
H         11.77698       -5.32568        4.87010
H         12.29563       -6.33671        3.52511
H         11.24394       -4.70543        1.89620
H         10.71800       -3.70089        3.24288
H          8.33221       -3.35355        4.58691
H          7.13559       -3.06328        6.69266
H          7.18802       -7.33516        7.31943
H          8.37813       -7.63273        5.20840
H          4.29232       -4.17852        8.87557
H          8.83133       -3.41197        9.22376
H         10.23632       -2.26092       10.86361
H          7.17399       -2.83014       13.86830
H          5.77137       -3.95873       12.21788
H          8.47559        0.53163       13.50668
H          9.91532        0.63414       12.49856
H         11.31692        1.11679       14.59287
H          9.83681        1.06677       15.56234
H          8.35125       -1.70098       15.75348
H         10.03623       -1.45117       16.25734
H          9.50491       -3.04625       15.68658
H         12.03565       -1.60189       12.48237
H         11.93056       -2.91187       13.67275
H         12.33128       -1.26419       14.20138
H          7.92960       -3.95080        1.87908
H          7.20925       -5.55346        1.64986
H          8.63182       -5.07302        0.69040
H         10.27193       -8.00776        3.40126
H         10.11055       -7.64175        1.66996
H          8.68343       -8.11091        2.61745
