36

C          1.41011        1.09498       -1.20449
C          2.74642        0.60564       -0.63787
C          3.19799        1.37893        0.60955
C          4.54673        0.93082        1.19032
Al         5.15285        1.93606        2.81194
S          3.71289        1.02952        4.63174
O          2.91433       -0.13785        4.19710
O          4.37028        0.94231        5.95681
C          2.33367        2.35132        4.97011
F          1.63334        2.64075        3.84206
F          1.45412        1.88531        5.89111
F          2.84776        3.51217        5.44332
C          7.04471        1.58401        3.38082
C          8.06458        1.70201        2.41377
C          9.41909        1.53601        2.72611
C          9.82212        1.23057        4.03219
C          8.82227        1.10499        5.00912
C          7.47207        1.28009        4.69224
C         11.27841        1.02747        4.37576
H          1.09652        0.51519       -2.08611
H          1.47203        2.15275       -1.50493
H          0.61153        1.01674       -0.45106
H          3.52936        0.68195       -1.41301
H          2.67359       -0.46577       -0.38471
H          2.41302        1.28214        1.37962
H          3.23582        2.45565        0.36217
H          5.33230        1.02287        0.41486
H          4.50497       -0.14383        1.44142
H          4.71247        3.49445        2.87048
H          7.80600        1.93698        1.37487
H         10.17730        1.64590        1.94353
H          9.10752        0.86733        6.03938
H          6.72804        1.17399        5.48615
H         11.93083        1.33594        3.54669
H         11.49723       -0.03051        4.59411
H         11.56735        1.60418        5.26773
