31

O          2.08934       -1.28295        0.58166
C          2.50752       -0.18571        0.14867
O          2.43726        0.97465        0.61835
C          3.29808       -0.24371       -1.22637
S          3.13441       -1.90621       -2.05417
O          1.77042       -2.17231       -2.49159
O          4.21578       -2.02317       -3.03641
C          3.52805       -3.33917       -0.80654
F          4.39279       -2.99021        0.16497
F          2.43514       -3.88352       -0.27658
F          4.13420       -4.30422       -1.55670
C          2.75620        0.77668       -2.25441
C          1.23113        0.90899       -2.35529
C          0.87304        2.02357       -3.34615
C         -0.61772        2.23053       -3.51400
C         -0.99990        3.34160       -4.54108
F         -0.48036        4.53886       -4.17509
F         -0.52267        3.04349       -5.77439
F         -2.33929        3.48531       -4.64019
F         -1.24296        1.08484       -3.95213
F         -1.21745        2.58830       -2.32905
C          4.78982        0.02010       -0.98431
H          3.19632        0.57231       -3.24711
H          3.16698        1.74173       -1.91575
H          0.83542        1.14897       -1.35893
H          0.78529       -0.03929       -2.67863
H          1.28641        1.80438       -4.34357
H          1.30176        2.98448       -3.01967
H          5.24200       -0.74107       -0.33709
H          4.85180        0.98651       -0.46550
H          5.35414        0.06428       -1.92624
