13

F          1.06853       -0.32798       -0.01784
C          2.45851       -0.11385       -0.33601
C          2.79103        1.26343        0.24492
C          2.40190        1.77932        1.68216
C          2.80918        0.90735        2.91805
F          4.12179        0.59977        2.91934
F          2.56412        1.61804        4.06241
F          2.09293       -0.22368        3.00194
F          2.96220        3.03122        1.92361
F          1.04673        1.94036        1.76535
F          4.16558        1.43417        0.17076
F          2.20935        2.22195       -0.58140
F          3.12516       -1.04600        0.54502
