26

O          3.50129        3.11622       -1.63202
C          2.75146        2.13844       -1.61197
O          1.58525        2.05592       -2.15193
C          3.22481        0.79002       -0.92091
C          3.96603       -0.08065       -1.92708
C          4.83450        0.51475       -2.85842
C          5.53638       -0.26177       -3.77854
C          5.40233       -1.65845       -3.80764
C          4.53239       -2.24756       -2.88112
C          3.82701       -1.47687       -1.95343
C          6.18158       -2.49780       -4.79115
C          2.10795        0.07367       -0.13019
C          0.99491       -0.69210       -0.88964
O          0.64492       -1.79870       -0.47900
O          0.44796       -0.08959       -1.91688
Cl         4.48916        1.23253        0.38160
H          4.94930        1.59999       -2.84857
H          6.19939        0.22816       -4.49714
H          4.39205       -3.33191       -2.88753
H          3.15215       -1.97821       -1.25933
H          6.51081       -1.90032       -5.65275
H          5.58092       -3.33813       -5.16814
H          7.08401       -2.92734       -4.32594
H          1.60935        0.83436        0.49086
H          2.55807       -0.65157        0.55649
H          0.95150        0.89067       -2.05136
