45

S          2.28117       -0.51234        2.02977
C          3.52942       -0.05403        0.74893
C          4.17954       -1.32203        0.19127
C          5.27848       -1.02690       -0.84011
Al         6.29933       -2.65529       -1.43771
S          5.22919       -3.44871       -3.53539
O          5.15072       -2.33175       -4.50495
O          5.81059       -4.71693       -4.02018
C          3.28304       -3.86358       -3.40013
C          2.88139       -5.07635       -2.52328
C          1.34458       -5.34193       -2.33501
F          0.72815       -4.31640       -1.71681
F          0.73545       -5.55343       -3.52194
F          1.16391       -6.45166       -1.57560
F          3.39916       -6.21635       -3.05592
F          3.39773       -4.89682       -1.27208
F          2.65987       -2.74717       -2.90424
F          2.83539       -4.06888       -4.67041
C          8.13254       -2.40691       -2.20738
C          8.37241       -1.23965       -3.17540
C          9.79522       -1.19240       -3.75095
C         10.03518       -0.04795       -4.73986
C         11.44021       -0.04511       -5.35031
C         11.67107        1.09249       -6.34827
H          1.85330        0.74115        2.31109
H          4.28742        0.59338        1.21185
H          3.02692        0.50550       -0.05203
H          3.39524       -1.95285       -0.25770
H          4.59192       -1.90797        1.03059
H          6.01855       -0.33137       -0.39804
H          4.85483       -0.49716       -1.71048
H          6.15525       -3.91369       -0.42882
H          8.40820       -3.35731       -2.69940
H          8.82149       -2.32088       -1.34334
H          8.16159       -0.27997       -2.66875
H          7.65493       -1.29646       -4.01128
H         10.00272       -2.15462       -4.25234
H         10.52282       -1.12132       -2.92142
H          9.85506        0.91859       -4.23506
H          9.28738       -0.10823       -5.55028
H         11.61567       -1.01335       -5.84948
H         12.18776        0.01625       -4.54055
H         10.95657        1.03624       -7.18344
H         12.68530        1.06532       -6.77332
H         11.53636        2.07408       -5.86824
