74

C          1.15002       -2.25291       -0.66427
C          2.55744       -1.65185       -0.60905
C          3.07929       -1.18828       -1.97358
C          4.47335       -0.55559       -1.91739
C          5.00184       -0.08817       -3.27754
C          6.36976        0.59690       -3.20055
C          6.89996        1.08708       -4.55379
C          8.24437        1.82235       -4.46146
Si         8.96536        2.39353       -6.12958
C          9.25910        0.93538       -7.24638
C          8.91449        0.92725       -8.61843
C          9.18943       -0.15400       -9.44287
C          9.82835       -1.33445       -8.95863
C         10.17354       -1.32527       -7.57001
C          9.90213       -0.22891       -6.76252
N         10.15660       -2.30941       -9.84694
C         10.22659       -3.61805       -9.54976
C         10.99062       -4.47482      -10.41109
C         11.06078       -5.84083      -10.22659
C         10.36391       -6.46981       -9.17022
C          9.58776       -5.65566       -8.31410
C          9.52470       -4.28592       -8.48559
C         10.41201       -7.93527       -8.98095
C          9.13030       -8.77206       -9.36883
C          8.53722       -8.66495      -10.82773
C          9.35688       -9.11120      -12.10291
C          9.88687      -10.59273      -12.27308
C          8.86259      -11.78745      -12.23337
F          7.81307      -11.56645      -13.04717
F          9.50038      -12.90113      -12.66380
F          8.41325      -12.02148      -10.99283
F         10.45636      -10.62661      -13.51523
F         10.85196      -10.84934      -11.36091
F          8.52972       -8.87746      -13.16599
F         10.44151       -8.31282      -12.24114
F          7.39410       -9.42684      -10.83665
F          8.17676       -7.38093      -11.05912
F          9.34937      -10.10531       -9.12551
F          8.10436       -8.38160       -8.55516
F         11.45555       -8.52243       -9.67472
F         10.59553       -8.28317       -7.63653
C          7.76767        3.63429       -6.92121
C         10.58318        3.30818       -5.74102
H          0.81036       -2.58453        0.32739
H          1.11415       -3.12390       -1.33618
H          0.41845       -1.52066       -1.03903
H          3.25811       -2.39273       -0.18721
H          2.56651       -0.79841        0.09112
H          2.36801       -0.46231       -2.40734
H          3.09309       -2.04600       -2.66907
H          5.18450       -1.27902       -1.48016
H          4.45329        0.30271       -1.22171
H          4.27342        0.60801       -3.73102
H          5.06150       -0.94967       -3.96511
H          7.10426       -0.09876       -2.75697
H          6.30856        1.45265       -2.50345
H          6.14430        1.74989       -5.01165
H          7.00016        0.22970       -5.24056
H          8.99283        1.16755       -3.98029
H          8.15332        2.70443       -3.80158
H          8.41556        1.79706       -9.05697
H          8.92422       -0.12981      -10.50196
H         10.69261       -2.18874       -7.15036
H         10.21057       -0.27883       -5.71194
H         11.53011       -3.99968      -11.23213
H         11.67092       -6.44184      -10.90068
H          9.02938       -6.11464       -7.49603
H          8.90504       -3.69397       -7.81137
H          6.81473        3.15792       -7.19028
H          8.19444        4.06960       -7.83608
H          7.55409        4.45948       -6.22583
H         11.30983        2.61816       -5.28736
H         10.42621        4.14764       -5.04655
H         11.03372        3.70145       -6.66346
