22

C          0.87472        0.38538        0.71733
C          2.39996        0.46250        0.85372
N          2.93819       -0.81660        1.20722
C          4.26630       -0.88675        1.36552
C          5.21561        0.19391        1.21548
C          6.58562        0.00546        1.41101
C          7.14188       -1.23358        1.76299
C          6.22925       -2.30726        1.91169
C          4.86704       -2.15096        1.72469
C          8.62349       -1.41950        1.97139
H          0.43835        1.36158        0.44591
H          0.42687        0.04959        1.66534
H          0.59996       -0.35131       -0.05320
H          2.64122        1.26104        1.60422
H          2.81455        0.85981       -0.11045
H          4.85720        1.18820        0.94262
H          7.25830        0.86404        1.28285
H          6.61498       -3.29740        2.18547
H          4.18856       -2.99974        1.84956
H          9.16051       -0.46876        1.82746
H          9.06770       -2.15013        1.26849
H          8.87109       -1.77995        2.98780
