44

N          2.46482       -0.27340        1.64709
C          2.77232       -0.89187        0.35223
C          2.68702        0.10308       -0.80791
Nb         4.79588       -0.20553       -1.23338
S          6.63716       -0.80597        0.35762
O          6.23633       -1.57741        1.55510
O          7.76543       -1.34352       -0.43802
C          7.63161        0.70144        1.19244
C          6.88421        1.74208        2.08034
C          7.79763        2.58597        3.04595
F          8.29571        1.84363        4.05442
F          8.82941        3.15296        2.38393
F          7.06766        3.58801        3.60298
F          6.24303        2.64763        1.29097
F          5.96827        1.12437        2.87539
F          8.57041        0.08909        1.98368
F          8.30185        1.39050        0.22404
C          5.10475        0.44519       -3.30703
C          5.25561        1.86625       -3.76512
O          5.57336        1.93825       -5.18267
C          5.74448        3.26830       -5.61620
C          6.25088        3.29215       -7.04401
O          5.21331        2.92347       -7.94779
C          5.67373        2.85246       -9.27990
H          2.86545       -0.81861        2.41074
H          1.45432       -0.23755        1.78485
H          2.17922       -1.80302        0.13640
H          3.81687       -1.31350        0.46346
H          2.29637        1.07627       -0.49409
H          2.10613       -0.29125       -1.66279
H          6.01148        1.04176       -1.16342
H          5.17576       -1.95419       -1.13625
H          4.73286        0.82336        0.16307
H          4.28383       -0.06267       -3.85835
H          6.03455       -0.12590       -3.50870
H          6.06553        2.36597       -3.20174
H          4.32504        2.44264       -3.59064
H          6.48801        3.79670       -4.98132
H          4.79435        3.84018       -5.55085
H          7.10468        2.59293       -7.14052
H          6.61401        4.31324       -7.28601
H          4.82736        2.53397       -9.90293
H          6.49637        2.11948       -9.39160
H          6.03673        3.83561       -9.64394
