37

N          1.93775       -1.18008       -0.11867
C          2.28535       -0.10011        0.81833
C          3.17982       -0.62940        1.93923
Nb         5.31351       -0.45686        2.09150
S          5.95410        1.18358        0.16544
O          6.22939        2.62573        0.01263
O          7.06231        0.35914        0.83852
C          6.30646        0.55507       -1.67737
C          5.16413        0.73406       -2.72719
C          4.62295        2.18778       -2.96667
C          3.70515        2.34372       -4.23747
F          2.71138        1.43319       -4.25052
F          3.14493        3.57522       -4.21914
F          4.40851        2.22932       -5.37981
F          3.87214        2.56260       -1.89826
F          5.64699        3.06259       -3.12524
F          5.61635        0.26713       -3.94151
F          4.11331       -0.04156       -2.34959
F          7.41440        1.20967       -2.12283
F          6.58471       -0.77445       -1.66491
C          6.66808       -2.21352        1.98348
O          7.55269       -2.32216        3.17395
C          8.48708       -3.25768        3.14088
F          7.99688       -4.54150        3.02000
F          9.39762       -3.12699        2.11885
F          9.19538       -3.21954        4.30206
H          1.40522       -0.80709       -0.90543
H          1.33633       -1.86122        0.34870
H          1.38852        0.39221        1.25503
H          2.81117        0.67690        0.24216
H          2.86497       -1.63876        2.25795
H          3.08308        0.01503        2.85475
H          5.13123       -1.28620        3.70131
H          5.09383       -1.19718        0.51187
H          5.54236        1.28598        2.53931
H          7.31215       -2.17903        1.09556
H          6.02709       -3.11146        1.95491
