48

C          8.70542       -0.05124        3.46821
C          7.76748       -0.33644        2.29202
C          8.22277        0.30260        0.97602
C          7.29436        0.01677       -0.20864
C          7.74324        0.64894       -1.53252
C          6.81790        0.35691       -2.72157
B          7.28850        1.06859       -4.12979
C          6.03967        1.13273       -5.19688
C          5.45900       -0.17058       -5.81189
F          5.00182       -1.01988       -4.85569
F          4.41019        0.05413       -6.66167
F          6.39622       -0.84488       -6.53425
F          4.90848        1.75332       -4.63381
F          6.33614        1.91467       -6.33207
C          8.65806        0.38224       -4.73772
C          9.27599        1.04419       -5.97867
C         10.71761        0.62087       -6.30775
C         10.87137       -0.86254       -6.64123
N         12.26701       -1.17240       -6.94864
C         12.68229       -2.44580       -7.28119
N         11.96086       -3.49367       -7.50165
N         14.08620       -2.54966       -7.37986
H          8.35323       -0.52248        4.39799
H          8.79061        1.03065        3.65348
H          9.71953       -0.42905        3.26619
H          6.75203        0.02098        2.53479
H          7.67616       -1.42715        2.15038
H          9.24135       -0.05222        0.73507
H          8.31113        1.39542        1.11547
H          6.27611        0.37265        0.03289
H          7.20488       -1.07683       -0.34284
H          8.76811        0.30024       -1.75701
H          7.82503        1.74351       -1.40056
H          5.80032        0.69223       -2.44873
H          6.74451       -0.74326       -2.83584
H          7.50018        2.27408       -3.92659
H          8.50141       -0.69634       -4.93169
H          9.41387        0.42208       -3.92821
H          9.27007        2.13769       -5.83601
H          8.64202        0.86230       -6.86244
H         11.36443        0.85305       -5.43975
H         11.10388        1.20917       -7.15942
H         10.25560       -1.11044       -7.52191
H         10.50227       -1.47690       -5.80093
H         12.94505       -0.62448       -6.42574
H         10.98050       -3.31530       -7.26827
H         14.51056       -1.78232       -7.89679
H         14.33264       -3.44917       -7.78620
