26

N          3.54454       -3.34640       -0.61330
C          3.80715       -1.92644       -0.29132
C          4.25816       -1.14495       -1.52633
C          4.53192        0.34078       -1.26732
Al         5.16720        1.43228       -2.83971
C          3.91844        1.38468       -4.43309
C          2.57832        2.09850       -4.20573
C          1.68985        2.07929       -5.45167
S          0.10648        3.02002       -5.32704
I          7.46242        0.32195       -3.69445
H          3.40761       -3.88433        0.24461
H          4.37519       -3.73880       -1.06283
H          4.57017       -1.79280        0.50288
H          2.86995       -1.49001        0.09515
H          3.49126       -1.26874       -2.31077
H          5.17417       -1.61999       -1.92511
H          5.28154        0.44503       -0.46096
H          3.61317        0.82456       -0.87909
H          5.52203        2.96493       -2.40947
H          3.74138        0.33643       -4.73496
H          4.44697        1.85802       -5.28038
H          2.73898        3.14644       -3.90220
H          2.02282        1.62505       -3.37563
H          1.46097        1.04763       -5.75490
H          2.20713        2.56051       -6.29577
H         -0.36730        2.37366       -4.23507
