34

F          1.99391       -0.16527        0.26179
Ta         3.83680       -0.61058        0.47693
C          3.63730       -1.73526       -1.51222
C          3.01661       -1.06684       -2.79219
C          3.80811        0.15837       -3.36436
C          3.33135        0.68581       -4.76841
F          3.61360       -0.18871       -5.75462
F          2.00916        0.94568       -4.79331
F          3.98563        1.84071       -5.04835
F          3.67878        1.20754       -2.49997
F          5.12680       -0.13280       -3.50633
F          2.90186       -1.98138       -3.82306
F          1.75142       -0.62425       -2.52259
F          4.72584       -2.43863       -2.00929
F          2.66810       -2.73050       -1.20572
C          4.67319        1.24714        1.29928
C          4.94965        2.46578        0.41779
C          5.47921        3.67208        1.22055
C          5.87853        4.85482        0.36363
C          6.41101        6.08821        1.15626
F          5.46084        6.56994        1.99395
F          7.49109        5.75276        1.90288
F          6.77800        7.09185        0.32823
F          6.87912        4.51912       -0.52217
F          4.81959        5.32072       -0.38691
H          3.95753       -1.26193        2.14627
H          5.21105       -0.18200       -0.57729
H          4.64901       -2.19397        0.51419
H          5.60248        0.92243        1.80767
H          3.95748        1.50938        2.10974
H          4.03685        2.77504       -0.11565
H          5.68075        2.19086       -0.35531
H          6.36477        3.37339        1.80232
H          4.72110        4.01894        1.93968
