29

N          0.82777        0.50136       -0.05737
C          2.28392        0.25087        0.00920
C          2.84708       -0.12933       -1.35676
C          4.34894       -0.42740       -1.33604
C          4.91664       -0.83876       -2.71922
C          6.37919       -1.22152       -2.74513
C          7.31037       -0.17087       -2.75646
F          7.01959        0.90046       -3.58903
F          7.50768        0.65623       -1.41669
F          8.63056       -0.50576       -2.97448
C          6.77517       -2.51942       -2.08414
C          6.34861       -3.76129       -2.90085
N          6.93825       -3.68352       -4.24888
H          0.45555        0.65984        0.88109
H          0.36183       -0.33912       -0.40706
H          2.55553       -0.53967        0.73792
H          2.76597        1.17889        0.35763
H          2.63008        0.68302       -2.07156
H          2.30337       -1.01913       -1.73074
H          4.54887       -1.23347       -0.60813
H          4.90921        0.45168       -0.98012
H          4.73294       -0.00785       -3.42151
H          4.30092       -1.68110       -3.09532
H          6.35901       -2.64710       -1.05767
H          7.86984       -2.55259       -1.97099
H          5.23986       -3.81082       -2.92128
H          6.69776       -4.67815       -2.39144
H          6.92547       -2.66941       -4.46129
H          6.32378       -4.12772       -4.93255
