30

C          4.93215       -2.14845       -2.20344
C          4.47371       -1.13141       -1.15327
C          5.00012       -1.44131        0.25118
C          4.57924       -0.42886        1.32124
C          5.12043       -0.74376        2.73284
C          6.64226       -0.70508        2.88619
Ga         7.42190       -1.24217        4.70372
C          7.57119        0.28835        6.03761
C          6.27830        1.05340        6.33727
S          6.13664       -3.01040        5.64450
H          4.54617       -1.91103       -3.20627
H          4.59258       -3.16314       -1.94475
H          6.03073       -2.18011       -2.26575
H          3.37033       -1.09246       -1.13432
H          4.80615       -0.12142       -1.45055
H          6.10100       -1.49380        0.21754
H          4.65995       -2.44811        0.55423
H          3.47349       -0.38255        1.35049
H          4.92295        0.57777        1.01732
H          4.75051       -1.73856        3.04046
H          4.65991       -0.02985        3.43845
H          7.01941        0.30832        2.64850
H          7.11818       -1.38832        2.16311
H          8.85080       -1.96070        4.49845
H          8.33751        0.97992        5.64127
H          7.98936       -0.13161        6.96754
H          5.85508        1.50199        5.42323
H          6.40612        1.87645        7.06757
H          5.50730        0.38003        6.74593
H          5.00183       -2.30095        5.85282
