33

C          1.00207       -0.62495        2.05770
C          2.48255       -0.52844        1.67462
C          3.05005       -1.78070        0.97599
Al         2.11953       -2.07636       -0.78633
S          3.34480       -3.95758       -1.83727
O          4.78731       -3.90631       -2.05684
O          2.82310       -5.22663       -1.27792
F          2.71897       -3.97742       -3.40204
C          0.26189       -2.84320       -0.98640
C         -0.45652       -2.29591       -2.07368
C         -1.78271       -2.63733       -2.35391
C         -2.45794       -3.53425       -1.52116
C         -1.79520       -4.07530       -0.42103
C         -0.45025       -3.75435       -0.16650
C          0.13661       -4.39850        1.06377
O         -0.48569       -4.46788        2.11358
O          1.37478       -4.91858        0.98301
C          4.56983       -1.63232        0.78681
H          0.66591        0.27255        2.59953
H          0.81364       -1.49835        2.69961
H          0.35598       -0.73513        1.17281
H          3.07533       -0.32405        2.59019
H          2.63561        0.35524        1.02704
H          2.86432       -2.64772        1.63413
H          2.32948       -0.87893       -1.85310
H          0.04824       -1.57696       -2.72600
H         -2.28957       -2.20158       -3.21846
H         -3.49595       -3.80679       -1.72371
H         -2.30834       -4.75450        0.26209
H          1.75035       -4.95274        0.05656
H          4.81228       -0.80865        0.09437
H          5.03417       -2.53933        0.37534
H          5.07500       -1.40304        1.74502
