27

C          1.16692       -0.38845        0.03599
B          2.76160       -0.35942        0.42909
C          3.30986        1.18523        0.59293
C          2.82479        2.01093        1.82819
C          3.32998        3.48950        1.99579
F          4.67232        3.57270        2.10408
F          2.93944        4.28572        0.97739
F          2.80468        4.02188        3.13939
F          1.45615        2.10889        1.82495
F          3.19659        1.37340        2.98146
F          4.71737        1.25751        0.68279
F          3.00333        1.99737       -0.52080
C          3.63927       -1.10702       -0.75705
C          5.05103       -1.61336       -0.43879
S          5.03512       -2.92534        0.84926
C          6.73237       -3.53613        0.64547
H          0.50030        0.03172        0.80564
H          0.84640       -1.43362       -0.11960
H          0.95026        0.15234       -0.90392
H          2.94969       -0.91103        1.51435
H          3.73525       -0.43859       -1.63497
H          3.04709       -1.96966       -1.11489
H          5.69644       -0.79867       -0.07962
H          5.53101       -2.07079       -1.32314
H          6.86826       -4.37283        1.34448
H          7.47298       -2.75774        0.88446
H          6.91304       -3.89873       -0.37859
