28

C          2.46226        0.00871        2.13228
C          2.40379       -1.42471        1.59173
C          3.46232       -1.70053        0.52556
Nb         5.62146       -1.38060        0.72356
C          6.04552        0.62058       -0.14259
C          5.75537        1.99008        0.48141
C          6.67682        2.32344        1.65294
N          6.42134        3.68977        2.15938
S          7.03733       -3.23104        1.60521
H          1.67144        0.20159        2.87464
H          2.34510        0.74519        1.32137
H          3.43394        0.19666        2.61387
H          1.37887       -1.62054        1.21416
H          2.56484       -2.12365        2.42764
H          3.22936       -1.14275       -0.41134
H          3.47040       -2.77351        0.24298
H          6.45080       -2.14194       -0.69578
H          6.40686       -0.53045        2.05163
H          5.18777       -1.94697        2.35037
H          5.47636        0.51433       -1.09528
H          7.11030        0.55528       -0.44082
H          4.71208        2.05515        0.83511
H          5.86376        2.80489       -0.26836
H          7.72678        2.16746        1.33153
H          6.49601        1.60760        2.46742
H          6.66457        4.36903        1.43392
H          7.04113        3.88613        2.94758
H          7.77895       -3.61584        0.53451
