21

C          1.03334        0.07277        0.08426
In         3.12918        0.30449        0.69802
S          4.02388        1.61569       -1.52412
O          4.03905        0.69107       -2.68257
O          3.46046        2.96624       -1.74817
C          5.91624        1.99746       -1.30678
F          6.61323        0.85819       -1.03745
F          6.44691        2.55004       -2.42311
F          6.13650        2.85428       -0.27485
C          4.36871       -1.52736        0.32120
O          3.71929       -2.67231        1.01228
C          4.30850       -3.85399        0.88881
F          5.58486       -3.90386        1.40160
F          3.57842       -4.78142        1.56556
F          4.42036       -4.30066       -0.40400
H          0.99590       -0.18629       -0.98147
H          0.46858        0.99907        0.24543
H          0.56279       -0.73716        0.65811
H          3.61719        1.30641        2.05295
H          5.39443       -1.43976        0.70339
H          4.40050       -1.74910       -0.75386
