26

C          0.93501        0.03548        0.12260
C          2.46629        0.05629        0.08278
C          3.04289        1.12796       -0.84581
C          4.57695        1.13512       -0.93158
N          5.06907        2.14423       -1.78092
C          6.47385        2.12125       -1.81870
C          7.05416        3.21419       -2.74001
C          6.53306        4.61117       -2.40306
N          7.01372        5.04759       -1.06948
H          0.54537       -0.73979        0.80219
H          0.51690       -0.15704       -0.87837
H          0.53480        1.00545        0.45855
H          2.83726       -0.93443       -0.23372
H          2.85742        0.21151        1.10354
H          2.71152        2.12900       -0.51619
H          2.64268        0.99517       -1.86696
H          4.89599        0.08009       -1.23642
H          4.97307        1.20783        0.13940
H          6.92180        1.13217       -2.16926
H          6.96436        2.23547       -0.78624
H          6.75558        2.98322       -3.77685
H          8.15835        3.20431       -2.69196
H          5.43163        4.55657       -2.45728
H          6.89432        5.34231       -3.14959
H          6.81840        4.27517       -0.42450
H          6.42462        5.81714       -0.74355
