33

C          0.49747        0.31756        0.02169
O          1.88762        0.29990        0.26337
C          2.55111        1.39819       -0.36103
C          4.03587        1.34621       -0.03184
O          4.64243        2.41137       -0.72385
C          6.06384        2.55712       -0.40817
C          6.66889        3.72494       -1.12506
Ga         8.63596        4.01729       -0.63765
C          9.70739        2.30966       -1.00438
C          9.77526        1.37355        0.22238
C         10.44714        0.06018       -0.11781
O         11.64022       -0.19185        0.05934
N          9.60477       -0.89002       -0.68245
O          8.65935        4.32051        1.24807
H          0.06355       -0.55168        0.53393
H          0.26695        0.24887       -1.06041
H          0.02462        1.23982        0.41458
H          2.12703        2.35760       -0.00469
H          2.41325        1.36016       -1.45971
H          4.45504        0.36308       -0.33772
H          4.18318        1.43593        1.06464
H          6.56264        1.60479       -0.68747
H          6.15432        2.66975        0.68962
H          6.12982        4.64921       -0.86370
H          6.59662        3.58781       -2.21710
H          9.24824        5.30756       -1.39098
H         10.73029        2.55549       -1.33047
H          9.22593        1.79293       -1.85471
H          8.76331        1.17964        0.61589
H         10.34251        1.85394        1.02954
H          8.72001       -0.57260       -1.06425
H         10.06540       -1.64065       -1.18647
H          9.24268        5.07345        1.41418
