55

I          2.30410       -0.90869       -1.59307
Ga         3.84798        0.62260       -0.03084
C          4.83181       -0.61617        1.23156
C          4.82142       -2.02014        1.13737
C          5.48368       -2.82611        2.06813
C          6.18879       -2.26871        3.15623
C          6.20888       -0.86289        3.25165
C          5.55122       -0.06483        2.30954
Si         7.06419       -3.36275        4.40130
C          8.71640       -3.99714        3.67573
C          9.70992       -2.87442        3.34951
C         11.02026       -3.39128        2.78251
C         12.07722       -2.31610        2.33643
C         12.63910       -1.27060        3.37492
C         13.45688       -1.72584        4.65282
C         14.76487       -2.57566        4.43947
C         15.70999       -2.64169        5.69964
F         15.03434       -3.04271        6.79255
F         16.68799       -3.53619        5.44894
F         16.28355       -1.45284        5.95161
F         14.42845       -3.84995        4.13092
F         15.49916       -2.04922        3.42504
F         13.82148       -0.56511        5.27365
F         12.62887       -2.40355        5.48597
F         13.43827       -0.42165        2.67399
F         11.59085       -0.54763        3.86283
F         13.15537       -2.95508        1.79536
F         11.50131       -1.56187        1.35689
F         11.65281       -4.23183        3.67492
F         10.79682       -4.13405        1.64582
C          7.44276       -2.41582        5.99740
C          6.02908       -4.88852        4.82201
C          2.59522        1.69654        1.16244
O          2.09396        2.90929        0.47613
C          1.36921        3.74388        1.20280
F          2.04837        4.30297        2.26731
F          0.96007        4.77544        0.41934
F          0.23857        3.18892        1.75598
H          4.75298        1.48964       -0.98853
H          4.26600       -2.49057        0.31976
H          5.43755       -3.91404        1.94823
H          6.73417       -0.37837        4.08103
H          5.59799        1.02278        2.43314
H          8.48640       -4.57011        2.76411
H          9.16644       -4.70441        4.39119
H          9.94646       -2.29129        4.25054
H          9.28114       -2.17415        2.61662
H          8.08126       -1.53788        5.82438
H          7.95663       -3.06567        6.72122
H          6.51459       -2.05773        6.46485
H          5.79102       -5.47310        3.92213
H          5.07697       -4.59283        5.28483
H          6.56015       -5.54943        5.52272
H          3.12988        2.02283        2.06921
H          1.72484        1.09694        1.46473
