23

N          0.78168       -0.31632       -0.43464
C          2.23189       -0.21967       -0.16269
C          2.99938       -1.38893       -0.77309
C          4.52334       -1.27248       -0.59308
C          5.34506       -2.38084       -1.26048
Ta         7.60629       -2.06881       -1.17582
Cl         9.67790       -3.28534       -1.23253
N          7.15297       -2.49748        0.74529
H          0.27988        0.41906        0.06731
H          0.43042       -1.20158       -0.06248
H          2.46782       -0.16114        0.91978
H          2.59219        0.72003       -0.61321
H          2.76053       -1.45182       -1.84748
H          2.64521       -2.33539       -0.32131
H          4.74848       -1.21646        0.48847
H          4.84612       -0.29970       -1.00846
H          5.03469       -2.46408       -2.31174
H          5.11042       -3.35918       -0.78811
H          6.85241       -0.80139       -2.19252
H          8.46150       -0.49879       -1.00736
H          7.32158       -2.97895       -2.70882
H          6.27116       -2.81704        1.13656
H          7.91107       -2.66210        1.40955
