25

N          0.62436       -0.73656        0.17208
C          2.08163       -1.02006        0.25681
C          2.76679       -0.17664        1.32553
Al         4.71337       -0.57753        1.57746
S          5.71216        0.50804       -0.37199
O          5.43416       -0.10372       -1.67204
O          5.66334        1.97082       -0.29868
F          7.36913        0.17375       -0.13361
C          5.63586        0.37517        3.10032
C          5.61430       -0.43656        4.40082
C          6.31900        0.15724        5.62173
O          6.34198       -0.35796        6.72159
O          6.95018        1.34521        5.40479
H          0.23023       -1.20189       -0.65044
H          0.50425        0.26618        0.00688
H          2.59549       -0.86885       -0.71177
H          2.18615       -2.09081        0.49975
H          2.24703       -0.32125        2.29120
H          2.65711        0.89641        1.08103
H          5.15118       -2.12901        1.45089
H          5.15332        1.35965        3.23136
H          6.67183        0.54795        2.75717
H          6.06890       -1.43039        4.25137
H          4.58536       -0.65034        4.73483
H          6.79200        1.55848        4.45699
