55

F          7.05329       -6.82863       -1.51148
C          6.85226       -5.90000       -0.53465
C          6.51735       -4.54219       -1.08646
C          5.69053       -4.43685       -2.21298
C          5.31489       -3.19155       -2.74886
C          5.80235       -2.04540       -2.08528
C          6.62560       -2.14859       -0.95714
C          6.99499       -3.39682       -0.44682
C          7.18152       -0.90638       -0.31373
F          6.36319        0.16805       -0.43909
F          7.41746       -1.07033        1.02439
F          8.38566       -0.54196       -0.86268
B          4.42634       -3.14901       -4.09596
S          2.93860       -1.90178       -3.90198
O          3.37455       -0.55776       -3.45948
O          2.04634       -1.95864       -5.07759
C          1.94937       -2.56247       -2.52326
C          5.22816       -2.73784       -5.43577
C          4.66572       -2.99308       -6.70640
C          5.33900       -2.69531       -7.88808
C          6.62156       -2.12251       -7.84003
C          7.20313       -1.85064       -6.59493
C          6.51054       -2.15709       -5.42275
C          7.36312       -1.83246       -9.11054
C          6.86485       -0.61827       -9.98507
C          6.79839        0.82698       -9.35982
C          8.10859        1.58705       -8.89204
C          9.26113        1.81759       -9.93988
C         10.29921        2.92830       -9.52236
F         10.76887        2.71530       -8.27987
F         11.33842        2.88542      -10.38472
F          9.76027        4.15839       -9.58148
F          9.95867        0.66866      -10.10448
F          8.74278        2.19853      -11.13702
F          7.67847        2.82001       -8.48852
F          8.63223        0.95276       -7.81642
F          6.20615        1.62126      -10.30086
F          5.99214        0.79193       -8.27225
F          7.63777       -0.53296      -11.11117
F          5.58942       -0.88989      -10.38442
F          8.70447       -1.61614       -8.88583
F          7.28288       -2.90714       -9.98343
F          5.85037       -6.39841        0.26002
F          7.97767       -5.89509        0.23845
H          5.33101       -5.34659       -2.69815
H          5.50446       -1.06015       -2.45015
H          7.63787       -3.47370        0.42840
H          3.83929       -4.20936       -4.25842
H          2.56372       -2.58708       -1.61581
H          1.59512       -3.56432       -2.79020
H          1.10918       -1.86740       -2.40357
H          3.66961       -3.43496       -6.75880
H          4.87793       -2.92137       -8.85023
H          8.20046       -1.41447       -6.54143
H          6.99626       -1.94638       -4.46779
