34

O          4.37623        1.10751       -1.27154
C          3.35900        0.97979       -0.37054
O          2.22383        1.26221       -0.69236
C          3.75894        0.48186        1.02029
C          5.22396        0.09752        1.24165
Ta         5.73048       -0.83135        3.16837
C          4.38622       -0.89892        5.00497
C          4.26841       -2.11606        5.97808
C          5.58343       -2.46717        6.74294
F          6.56350       -2.83084        5.88058
F          6.03444       -1.44180        7.48728
F          5.37164       -3.51954        7.57615
F          3.31337       -1.89539        6.94949
F          3.89300       -3.25165        5.31869
F          4.38252        0.18943        5.87474
F          3.11457       -0.85456        4.36846
C          7.81607       -1.49022        2.88106
C          8.12897       -2.34756        1.63941
C          8.64810       -1.57236        0.43299
O          9.14204       -2.08438       -0.54996
O          8.52601       -0.21784        0.51568
H          5.19375        0.81551       -0.81340
H          3.07799       -0.35524        1.24178
H          3.46648        1.27361        1.72663
H          5.89039        0.96950        1.09963
H          5.54042       -0.69045        0.51841
H          6.64318       -0.09405        4.48604
H          4.92711       -2.44062        3.19722
H          5.09118        0.74936        3.60147
H          7.64458       -2.17251        3.74737
H          8.69633       -0.90478        3.18662
H          7.23919       -2.89989        1.28516
H          8.88119       -3.13158        1.83081
H          8.10057       -0.03163        1.38381
