16

F          1.00406       -1.16617        0.02662
C          2.37975       -1.12947        0.32829
C          2.73531       -0.28976        1.41443
C          1.68983       -0.21527        2.56715
F          0.54275        0.41014        2.21657
F          1.35078       -1.45325        3.02393
F          2.20218        0.45669        3.63410
F          3.96773       -0.58112        1.97564
F          2.92248        1.21567        1.15208
C          3.20375       -1.44678       -0.82439
C          3.03072       -0.62063       -2.15281
F          3.32381        0.68502       -1.94845
F          3.86434       -1.05663       -3.14855
F          1.76813       -0.68927       -2.63779
F          4.54517       -1.36120       -0.52938
F          2.96716       -2.78425       -1.28984
