10

Br         4.15321       -0.84848       -1.04601
C          3.19193       -0.06173        0.46168
S          3.51921        1.59032        0.72109
O          2.73457        2.06317        1.85947
O          4.96322        1.81013        0.68184
C          2.94066        2.81185       -0.65239
F          1.59548        2.76893       -0.83372
F          3.26260        4.10019       -0.34319
F          3.51823        2.53279       -1.84947
I          1.11316       -0.61132        0.47575
