31

N          4.67530        2.91425        1.18928
C          4.12463        1.69464        0.55652
C          4.68471        1.49699       -0.84610
C          4.15367        0.23990       -1.54256
C          4.76943        0.00640       -2.93610
C          6.25108       -0.22973       -2.96817
C          6.70817       -1.47744       -2.23448
C          6.17077       -2.89749       -2.65192
C          6.78362       -3.48039       -3.92088
N          6.44460       -4.91839       -4.06207
N          6.70962       -0.09675       -4.35274
H          4.14024        3.14738        2.02883
H          4.55070        3.70058        0.54695
H          3.01416        1.70242        0.51171
H          4.40640        0.83399        1.18751
H          5.78505        1.44490       -0.83288
H          4.42899        2.38017       -1.46392
H          3.05228        0.30092       -1.63189
H          4.35549       -0.63591       -0.89894
H          4.55650        0.88656       -3.56916
H          4.15332       -0.82977       -3.41518
H          6.46380       -1.37208       -1.15914
H          7.81617       -1.53851       -2.26686
H          5.07215       -2.87277       -2.75253
H          6.39075       -3.60969       -1.82517
H          7.88002       -3.30332       -3.89653
H          6.40088       -2.95223       -4.81044
H          6.71823       -5.39885       -3.19712
H          7.00902       -5.34082       -4.80738
H          6.36973       -0.86287       -4.98909
H          7.72894       -0.15401       -4.39237
