60

C          0.99605       -0.27624       -0.32074
C          2.52121       -0.19744       -0.20800
C          3.01051        1.01515        0.59199
C          4.53561        1.11029        0.70352
C          5.02140        2.31154        1.52161
C          6.54654        2.40887        1.63156
C          7.03046        3.58987        2.48245
C          8.55808        3.67579        2.61583
Si         9.19220        5.11035        3.69394
C          8.61246        6.75470        3.00946
C          8.18246        7.80469        3.84516
C          7.77391        9.03259        3.31702
C          7.76251        9.28296        1.93262
C          8.19260        8.22900        1.10399
C          8.60925        6.99857        1.62096
Ga         7.19007       11.06340        1.15344
C          8.57204       12.51314        1.46638
C         10.03622       12.10130        1.24996
C         10.29676       11.62288       -0.18737
C         11.01309       13.23329        1.61824
Cl         5.34457       11.72882        2.38250
C          8.57044        4.85682        5.46601
C         11.08598        5.02893        3.70971
H          0.67548       -1.15726       -0.89527
H          0.58692        0.61422       -0.82130
H          0.52578       -0.33821        0.67247
H          2.96422       -0.16840       -1.21822
H          2.90435       -1.11995        0.26146
H          2.57180        0.98189        1.60538
H          2.62078        1.93835        0.12791
H          4.97232        1.15790       -0.30998
H          4.92626        0.18041        1.15506
H          4.58703        2.25883        2.53598
H          4.62840        3.24176        1.07585
H          6.98305        2.48815        0.61988
H          6.94270        1.46861        2.05694
H          6.57227        3.51351        3.48421
H          6.64835        4.53076        2.05253
H          9.01583        3.76702        1.61496
H          8.95666        2.73611        3.03988
H          8.15669        7.66176        4.93017
H          7.42963        9.81357        4.00180
H          8.18729        8.36538        0.01671
H          8.92707        6.21162        0.92680
H          6.70937       10.86734       -0.36003
H          8.43254       12.86802        2.50096
H          8.32232       13.36658        0.80959
H         10.25223       11.24848        1.92108
H         10.05155       12.41668       -0.91289
H          9.67604       10.75091       -0.43734
H         11.35212       11.34247       -0.33758
H         10.85053       14.11018        0.96901
H         12.06739       12.92553        1.50854
H         10.86054       13.56149        2.65734
H          7.47624        4.94169        5.52179
H          8.99744        5.60515        6.14862
H          8.85781        3.86164        5.83624
H         11.48541        5.16427        2.69439
H         11.45036        4.06563        4.09769
H         11.49809        5.83155        4.33771
