31

N          3.36129        0.04980       -0.47796
C          2.52102        0.90864        0.41816
C          3.48509        1.34861        1.50970
Ta         5.04555       -0.23720        1.17325
C          6.48470       -0.25874       -0.60984
C          7.43321       -1.29329       -0.40751
C          8.45377       -1.58313       -1.31054
C          8.55500       -0.87037       -2.51831
C          7.65545        0.15694       -2.76471
C          6.67004        0.48414       -1.80589
C          5.86857        1.70406       -2.10980
O          5.55663        2.10169       -3.22070
O          5.49972        2.44225       -1.01408
C          6.57724        0.96387        2.28150
H          3.63474        0.53420       -1.33310
H          2.93343       -0.83835       -0.72530
H          1.73046        0.27208        0.83657
H          2.03995        1.71882       -0.16597
H          3.03668        1.38025        2.51278
H          3.91642        2.34547        1.29850
H          3.58764       -1.17822        1.68343
H          4.90816       -1.87037        0.41459
H          5.49107       -1.39624        2.45628
H          7.33978       -1.91713        0.48907
H          9.16228       -2.38692       -1.09204
H          9.33178       -1.11419       -3.24641
H          7.70647        0.74678       -3.68268
H          5.91376        2.02415       -0.22823
H          6.73749        1.96020        1.81501
H          7.57064        0.49465        2.36456
H          6.21573        1.16277        3.30713
