26

C          2.35944       -1.54122        0.21706
C          2.52325       -0.01255        0.10848
B          3.17470        0.78192        1.40485
C          2.24946        0.56258        2.76238
C          2.67765        1.32756        4.01639
S          2.69292        3.14952        3.75187
C          2.74514        3.66558        5.49422
C          4.76407        0.42808        1.67996
N          5.03571       -0.96532        2.16340
H          1.92514       -2.00030       -0.69204
H          1.69602       -1.81473        1.05594
H          3.32916       -2.02641        0.40808
H          1.53110        0.42709       -0.12091
H          3.14343        0.20325       -0.78438
H          3.14881        2.00056        1.13119
H          2.21574       -0.50713        3.06317
H          1.19752        0.82528        2.53890
H          3.69490        1.03270        4.32643
H          2.00093        1.15973        4.87510
H          2.74857        4.76433        5.51479
H          3.65616        3.30595        5.99733
H          1.86621        3.30530        6.05252
H          5.18164        1.17700        2.38769
H          5.33515        0.56250        0.74057
H          4.28794       -1.23530        2.80628
H          5.89672       -0.99875        2.71540
