34

C          1.31017       -0.34200       -0.68103
C          2.56972       -0.05075        0.14515
In         3.12533       -1.49901        1.77742
C          1.80967       -3.33664        1.62709
C          0.43459       -3.23087        1.34327
C         -0.39494       -4.35543        1.21308
C          0.12134       -5.64268        1.38333
C          1.48058       -5.77667        1.67309
C          2.30665       -4.64462        1.77981
C          2.07356       -7.14903        1.83509
F          1.12782       -8.11548        2.04959
F          2.77886       -7.55072        0.73343
F          2.94173       -7.22120        2.88598
C         -1.86217       -4.18447        0.94138
F         -2.13849       -3.07847        0.19600
F         -2.40650       -5.24905        0.27596
F         -2.59604       -4.05389        2.09614
C          5.21929       -2.20989        1.21841
O          5.13799       -3.43405        0.36907
C          6.24829       -3.82788       -0.23219
F          7.30340       -4.07854        0.61866
F          6.00654       -4.98306       -0.90624
F          6.74275       -2.93000       -1.15557
H          1.18795        0.34590       -1.53952
H          0.39325       -0.25102       -0.07702
H          1.31282       -1.36341       -1.09224
H          2.50668        0.95755        0.58502
H          3.44926       -0.03758       -0.52051
H          3.13396       -0.85158        3.42907
H         -0.01584       -2.24592        1.20230
H         -0.51888       -6.51807        1.28838
H          3.36933       -4.79967        1.98039
H          5.86730       -2.45635        2.07225
H          5.71845       -1.43278        0.61828
