40

C          1.87017       -3.85842        1.31018
C          3.31211       -3.38424        1.52573
C          3.41533       -2.03884        2.25702
C          4.85356       -1.53032        2.47488
C          4.95431       -0.14313        3.12219
In         7.06142        0.64792        3.35161
C          8.11572        0.10712        1.40331
C          7.34880        0.38584        0.10629
C          6.94281        1.85326       -0.01438
S          5.96967        2.26723       -1.51735
C          8.16096       -0.67587        4.84890
C          9.65780       -0.55242        4.69434
S         10.59888       -1.62918        5.89556
C         12.31898       -1.23189        5.45348
H          1.82681       -4.81897        0.77392
H          1.29466       -3.12540        0.72358
H          1.34575       -3.99036        2.26954
H          3.81925       -3.30276        0.54866
H          3.87031       -4.15217        2.08912
H          2.90604       -2.11442        3.23540
H          2.85442       -1.27603        1.68666
H          5.36464       -1.52907        1.49518
H          5.40125       -2.27354        3.08359
H          4.47600       -0.15829        4.11720
H          4.38389        0.58638        2.52008
H          7.14984        2.37627        3.79149
H          8.30635       -0.97671        1.48379
H          9.10679        0.59161        1.37090
H          6.43323       -0.22658        0.06077
H          7.93221        0.11703       -0.80070
H          7.81921        2.51539        0.03356
H          6.28186        2.13794        0.81815
H          6.87161        1.81743       -2.42210
H          7.83113       -1.70911        4.65270
H          7.84403       -0.41186        5.86962
H         10.00566        0.47751        4.87362
H          9.99093       -0.85246        3.68852
H         12.97686       -1.79164        6.13195
H         12.52413       -0.15773        5.57392
H         12.54862       -1.52714        4.41883
