41

C          1.64241       -0.66355        0.39820
C          3.02137       -0.15604        0.82813
Ta         3.20592        1.54516        2.19724
C          1.68670        2.83579        3.18294
C          0.33453        2.48651        3.36875
C         -0.61083        3.38204        3.88863
C         -0.24829        4.67811        4.27559
C          1.10060        5.04307        4.11726
C          2.02905        4.14910        3.58219
C         -1.26100        5.65040        4.83261
C          5.36868        1.92126        2.05072
C          6.40015        0.92650        2.58737
C          7.87557        1.24870        2.26781
C          8.42368        2.48848        2.98099
C          9.87176        2.81221        2.60344
H          1.68417       -1.45679       -0.37211
H          1.02926        0.15054       -0.02017
H          1.09462       -1.06627        1.26257
H          3.58291        0.20908       -0.06231
H          3.62629       -0.98284        1.25080
H          2.26113        0.36580        3.16763
H          3.73492        1.53941        3.91725
H          2.72840        2.85170        0.99328
H          0.00673        1.47371        3.11373
H         -1.65157        3.06069        4.01200
H          1.42270        6.04801        4.41389
H          3.06271        4.49614        3.46376
H         -2.22031        5.15101        5.03252
H         -1.46095        6.48083        4.13427
H         -0.91604        6.10374        5.77589
H          5.51358        2.92560        2.49347
H          5.50670        2.04893        0.95158
H          6.18538       -0.07864        2.18274
H          6.27634        0.83819        3.68061
H          7.98345        1.38495        1.17595
H          8.50941        0.38134        2.53375
H          8.35007        2.33581        4.07151
H          7.78193        3.35378        2.75165
H         10.54180        1.96656        2.82514
H         10.25166        3.68996        3.14781
H          9.96033        3.02470        1.52674
