66

C          0.52570       -0.04878       -0.18990
C          2.05519       -0.08284       -0.13856
C          2.66983       -1.14223       -1.05896
C          4.20111       -1.16730       -1.03276
C          4.81937       -2.20094       -1.97958
C          6.35108       -2.17866       -1.99819
C          6.97336       -3.17243       -2.98756
C          8.50428       -3.08640       -3.07047
Si         9.33265       -4.27698       -4.30958
C          9.09109       -6.06246       -3.81120
C          8.35027       -6.98794       -4.58107
C          8.19133       -8.31574       -4.20513
C          8.77815       -8.83778       -3.01905
C          9.51841       -7.90167       -2.24219
C          9.66581       -6.57229       -2.62898
C          8.65461      -10.21779       -2.56913
S          8.52680      -11.48122       -3.68519
O          8.85812      -11.08536       -5.05359
O          9.05568      -12.73353       -3.14102
C          6.67025      -11.97159       -3.90829
C          6.32583      -12.90784       -5.10369
F          6.49602      -12.29252       -6.28865
F          7.07132      -14.02881       -5.08511
F          5.01374      -13.29266       -5.03690
F          6.22385      -12.59065       -2.77398
F          5.91478      -10.83204       -4.07776
C          9.01884      -10.61922       -1.14866
C          8.24507       -9.92990        0.01106
C          6.76990      -10.28079        0.14790
O          6.28746      -10.75101        1.18205
N          6.00952       -9.97523       -0.94762
C          8.61895       -3.96232       -6.03773
C         11.18065       -3.84498       -4.33631
H          0.11372        0.72352        0.47542
H          0.09614       -1.01503        0.11422
H          0.16808        0.16351       -1.20889
H          2.38613       -0.26648        0.89767
H          2.45511        0.90853       -0.41235
H          2.32722       -0.96465       -2.09406
H          2.28147       -2.13749       -0.77976
H          4.54592       -1.36234       -0.00196
H          4.58284       -0.16393       -1.29416
H          4.44405       -2.02239       -3.00314
H          4.46952       -3.21025       -1.70174
H          6.73597       -2.38535       -0.98395
H          6.69416       -1.15863       -2.25001
H          6.53724       -2.99190       -3.98588
H          6.67630       -4.19820       -2.71155
H          8.94102       -3.28364       -2.07514
H          8.80597       -2.05511       -3.33111
H          7.87411       -6.66126       -5.51004
H          7.61074       -8.97684       -4.84548
H         10.01809       -8.23464       -1.33194
H         10.26352       -5.91731       -1.98544
H         10.09247      -10.42024       -0.96325
H          8.91135      -11.70722       -1.05154
H          8.31859       -8.83543       -0.09379
H          8.71400      -10.20443        0.96525
H          6.49419       -9.85546       -1.83910
H          5.07652      -10.37365       -0.97394
H          7.54057       -4.17067       -6.08198
H          9.11106       -4.59798       -6.78765
H          8.76993       -2.91338       -6.33366
H         11.64384       -4.03411       -3.35688
H         11.34593       -2.78655       -4.58819
H         11.71214       -4.46134       -5.07526
