26

N          3.47610        1.65041       -0.60642
Ga         2.63966        0.11113        0.10812
S          0.95464        1.00145        1.74706
O          0.16352        0.01440        2.48741
O          1.44175        2.16202        2.49942
F         -0.19877        1.69959        0.68853
C          3.86640       -0.76072        1.44344
C          5.11576       -0.19028        1.75529
C          5.97657       -0.78514        2.68478
C          5.62138       -1.98031        3.32163
C          4.39115       -2.56057        3.01855
C          3.52253       -1.95183        2.09769
C          3.97397       -3.84801        3.67583
F          4.95241       -4.38704        4.46130
F          2.87835       -3.69438        4.47288
F          3.64418       -4.80731        2.75821
C          7.31223       -0.18137        3.02204
F          7.52325        1.02300        2.43458
F          7.46887        0.00486        4.37008
F          8.35446       -0.98977        2.63946
H          3.65493        2.34657        0.12031
H          2.88245        2.12059       -1.29071
H          1.80588       -0.79831       -0.85457
H          5.42497        0.73230        1.26035
H          6.29303       -2.44889        4.03988
H          2.55781       -2.42354        1.89558
