56

N          2.90625       -1.51048        1.13602
B          3.06561       -0.34737        0.21802
S          4.51697        0.81503        1.19077
O          4.00296        1.26341        2.50249
O          5.86202        0.19787        1.18304
C          4.83034        2.49854        0.29063
F          5.34189        2.31434       -0.95563
F          3.67926        3.20892        0.15022
F          5.70655        3.27241        0.97939
C          3.64655       -0.66880       -1.24387
C          3.11515       -0.03893       -2.38511
C          3.58013       -0.31568       -3.67376
C          4.61381       -1.24737       -3.89092
C          5.15637       -1.88021       -2.75147
C          4.68508       -1.59682       -1.46983
Si         5.31523       -1.58932       -5.59285
C          7.08717       -0.88138       -5.69662
C          7.18384        0.58561       -5.25467
C          8.59347        1.14007       -5.36142
C          8.77680        2.67626       -5.08174
C          8.30822        3.30294       -3.71440
C          8.93215        2.83766       -2.33459
C         10.48710        2.98526       -2.13998
C         10.96706        2.87784       -0.64262
F         10.59732        3.95529        0.06833
F         10.49083        1.77134       -0.05484
F         12.32018        2.81890       -0.63937
F         11.12459        2.01126       -2.83548
F         10.90212        4.19695       -2.60088
F          8.33042        3.61136       -1.39231
F          8.59084        1.54558       -2.12291
F          8.51406        4.64647       -3.82273
F          6.97029        3.09381       -3.59947
F         10.09039        3.00092       -5.25488
F          8.05606        3.34268       -6.03756
F          9.46142        0.46166       -4.54131
F          9.07753        0.97974       -6.64839
C          5.44198       -3.44729       -5.93373
C          4.25958       -0.78653       -6.94447
H          2.59210       -1.26616        2.07300
H          3.71380       -2.12597        1.22122
H          2.12918        0.43177        0.22493
H          2.30920        0.68810       -2.25273
H          3.12577        0.20281       -4.52356
H          5.96871       -2.60639       -2.86497
H          5.15399       -2.09388       -0.61671
H          7.45817       -0.99829       -6.72724
H          7.73521       -1.50126       -5.05672
H          6.84897        0.69217       -4.21332
H          6.53534        1.23141       -5.86561
H          6.02488       -3.95362       -5.15115
H          5.92889       -3.64685       -6.89990
H          4.44366       -3.90694       -5.95219
H          4.19773        0.30511       -6.83100
H          3.23285       -1.17894       -6.92388
H          4.68136       -0.99660       -7.93850
