63

I          3.55551        2.00595       -0.25878
Ga         5.40006        0.33604        0.50118
S          4.20259       -0.73430        2.42046
O          3.98235        0.14595        3.58002
O          3.06099       -1.53992        1.94496
C          5.30999       -2.19168        3.19492
C          6.74646       -1.89439        3.71880
C          6.90423       -0.85912        4.89132
C          8.29704       -0.92861        5.62595
F          9.32017       -0.89912        4.74909
F          8.41175        0.14246        6.44330
F          8.41067       -2.03631        6.38418
F          6.78552        0.39610        4.40098
F          5.95719       -1.06531        5.84223
F          7.30197       -3.08005        4.14917
F          7.49277       -1.45028        2.66817
F          4.57620       -2.74148        4.19992
F          5.46965       -3.14503        2.22566
C          5.66258       -1.13946       -0.81613
C          6.73985       -1.05604       -1.71576
C          7.01906       -2.08473       -2.62125
C          6.24478       -3.26151       -2.65121
C          5.15068       -3.33054       -1.76451
C          4.85517       -2.28981       -0.87914
Si         6.66964       -4.70337       -3.78417
C          8.48803       -4.52746       -4.34031
C          9.49511       -4.49590       -3.17919
C         10.88182       -4.04775       -3.60936
C         11.92178       -3.77169       -2.46233
C         12.36822       -4.93427       -1.49592
C         13.18687       -6.18221       -2.02707
C         14.55495       -5.91771       -2.76163
C         15.49613       -7.17907       -2.84918
F         15.99673       -7.50610       -1.64573
F         14.83798       -8.24021       -3.35373
F         16.52685       -6.88552       -3.66829
F         14.30906       -5.51703       -4.03201
F         15.25481       -4.95073       -2.11487
F         13.45484       -6.92959       -0.91582
F         12.39274       -6.91750       -2.84344
F         13.11805       -4.35851       -0.51897
F         11.25233       -5.45907       -0.91338
F         13.05758       -3.25252       -3.01321
F         11.37908       -2.82195       -1.64891
F         11.45587       -4.94385       -4.48532
F         10.80894       -2.84642       -4.28078
C          6.44101       -6.34513       -2.87022
C          5.59478       -4.72136       -5.34120
H          6.61960        1.08802        1.13040
H          7.39126       -0.17682       -1.70901
H          7.86715       -1.96354       -3.30174
H          4.51497       -4.22155       -1.74966
H          3.99967       -2.38925       -0.20723
H          8.55964       -3.59615       -4.92332
H          8.73322       -5.34461       -5.03668
H          9.58855       -5.48767       -2.71604
H          9.16186       -3.80503       -2.39056
H          7.06662       -6.39698       -1.96793
H          6.69881       -7.19683       -3.51715
H          5.39770       -6.47557       -2.54933
H          5.71081       -3.79104       -5.91457
H          4.53286       -4.81379       -5.07234
H          5.85252       -5.56529       -5.99856
