28

N          2.36258       -0.69805        1.23042
C          2.48847       -0.09403       -0.10838
C          3.06510        1.32202       -0.03150
C          4.53094        1.41224        0.42069
C          5.06581        2.83517        0.48835
As         7.07141        2.91674        0.88111
C          7.09513        5.00567        0.68915
O          6.89407        5.39473       -0.71842
C          6.94015        6.67813       -1.01198
F          5.97168        7.44294       -0.38873
F          8.13070        7.29791       -0.70756
F          6.74937        6.83971       -2.35285
F          8.98224        3.01578        1.25522
H          1.93052       -1.62083        1.16708
H          1.74101       -0.12486        1.80497
H          1.52612       -0.06137       -0.66160
H          3.17082       -0.73187       -0.69545
H          2.43161        1.92769        0.64457
H          2.96702        1.78915       -1.02645
H          5.15009        0.82236       -0.28098
H          4.64250        0.92009        1.39991
H          4.55943        3.41218        1.28014
H          4.91609        3.36001       -0.46887
H          7.47453        2.78125       -0.64607
H          6.87260        3.21491        2.44236
H          7.19012        1.35495        1.12991
H          8.07615        5.36088        1.02515
H          6.27246        5.41942        1.29237
