72

O          3.11362        2.10197        2.73629
C          2.65964        1.73063        1.63233
O          2.03474        2.34564        0.75104
C          3.04922        0.16719        1.23404
S          2.48133       -0.93693        2.65275
O          1.11211       -0.56143        2.99208
O          2.73373       -2.34276        2.31522
C          3.53406       -0.50376        4.03988
C          2.25560       -0.31401        0.03256
C          2.85524       -0.95727       -1.05825
C          2.09784       -1.35144       -2.16650
C          0.72147       -1.12532       -2.20735
C          0.11799       -0.48781       -1.12097
C          0.86889       -0.07472       -0.01757
C         -1.37236       -0.26853       -1.12612
F         -1.88753       -0.23401       -2.39335
F         -2.04117       -1.27247       -0.47639
F         -1.73711        0.88956       -0.52202
C          2.74230       -2.05174       -3.32979
F          4.09838       -2.08667       -3.24983
F          2.32638       -3.35354       -3.44435
F          2.43404       -1.46043       -4.52582
C          4.56242        0.07274        1.04598
C          5.26991       -1.14426        1.08141
C          6.65274       -1.18227        0.88292
C          7.39614       -0.01430        0.62988
C          6.67686        1.19670        0.57945
C          5.29739        1.24340        0.78253
Si         9.25240       -0.06250        0.32919
C          9.61696       -0.17350       -1.54299
C          8.96333        0.94063       -2.37045
C          9.45164        1.09356       -3.80305
C          9.23595       -0.07550       -4.83221
C          7.79237       -0.66351       -5.06165
C          6.61221        0.23267       -5.62237
C          6.80720        0.93413       -7.01849
C          5.46963        1.45087       -7.67406
F          4.76898        2.20641       -6.81224
F          5.79101        2.20750       -8.74660
F          4.70274        0.43228       -8.09536
F          7.62098        2.00779       -6.87458
F          7.37247        0.06616       -7.89960
F          5.54877       -0.60810       -5.73291
F          6.31654        1.18109       -4.69921
F          7.93803       -1.71830       -5.90909
F          7.34640       -1.14370       -3.86725
F          9.71443        0.32336       -6.04607
F          9.99105       -1.13787       -4.42235
F          8.88328        2.21743       -4.35975
F         10.81611        1.30833       -3.81285
C         10.07129        1.50273        1.00571
C         10.03295       -1.57952        1.14077
H          3.51295        0.59188        4.11272
H          4.54365       -0.88490        3.85570
H          3.07249       -1.00321        4.90043
H          3.92650       -1.14707       -1.05642
H          0.13050       -1.42978       -3.07024
H          0.38577        0.44027        0.80768
H          4.72845       -2.07001        1.27828
H          7.15395       -2.15285        0.93102
H          7.19938        2.13922        0.39379
H          4.78177        2.20300        0.74752
H          9.28438       -1.16084       -1.89605
H         10.71123       -0.14542       -1.67056
H          9.17260        1.92979       -1.93106
H          7.86996        0.83562       -2.38426
H          9.67215        2.41788        0.54608
H         11.15592        1.48388        0.82417
H          9.90834        1.58545        2.08957
H          9.61479       -2.51472        0.74236
H          9.86559       -1.57405        2.22694
H         11.11839       -1.59910        0.96465
