12

O          2.70293       -0.07785       -1.48258
B          2.31191       -0.02297       -0.13965
S          3.25808       -1.51712        0.74762
O          3.42379       -2.56908       -0.29186
O          4.49467       -1.02661        1.39642
C          2.31040       -2.29558        2.08239
I         -0.08027       -0.44328        0.12857
H          2.84987       -1.01410       -1.72175
H          2.46148        1.00845        0.46373
H          1.40654       -2.75458        1.67096
H          2.05362       -1.53111        2.82442
H          2.99579       -3.04041        2.50810
