42

C          1.66502       -1.53064       -0.18051
S          3.34299       -1.55542       -0.88168
C          3.49737        0.19998       -1.41948
C          4.88866        0.54020       -1.88922
As         5.02778        2.64135       -1.92388
C          4.80424        4.77106       -1.61380
C          3.83921        5.00940       -0.62615
C          3.49447        6.29113       -0.19371
C          4.13938        7.40592       -0.74590
C          5.11650        7.21026       -1.71847
C          5.43956        5.90235       -2.15980
C          6.47997        5.79467       -3.23475
O          6.38504        5.21059       -4.28852
O          7.64703        6.49538       -2.95652
C          7.11228        2.70792       -1.66757
C          7.97885        1.61145       -2.29381
C          7.92114        1.62475       -3.82825
C          9.43934        1.72222       -1.81798
H          1.45837       -2.53077        0.22365
H          0.91007       -1.29547       -0.94486
H          1.59207       -0.79717        0.63567
H          3.23512        0.82980       -0.54849
H          2.74938        0.38080       -2.20587
H          5.11843        0.11555       -2.87717
H          5.63953        0.20617       -1.15896
H          3.40720        2.70800       -2.02082
H          4.84426        2.57085       -0.28795
H          5.15389        2.76729       -3.49841
H          3.35031        4.13170       -0.18154
H          2.72663        6.42905        0.57326
H          3.87783        8.41717       -0.42659
H          5.60655        8.07615       -2.17480
H          7.56742        6.81903       -2.04093
H          7.20460        2.70046       -0.56823
H          7.44678        3.69200       -2.03232
H          7.60539        0.63027       -1.95161
H          8.29191        2.58443       -4.22180
H          6.89235        1.50700       -4.19214
H          8.53774        0.81655       -4.25432
H          9.87723        2.68232       -2.13613
H         10.06330        0.91213       -2.23388
H          9.50342        1.67395       -0.72018
