41

C          6.39874       -2.66596        1.89329
C          5.70652       -1.30546        2.00335
C          5.42817       -0.66260        0.63823
C          4.67478        0.66730        0.72789
Ta         5.53146        2.50144        1.52373
S          3.49939        3.65639        2.56238
O          4.87571        4.25468        2.90438
O          2.46444        4.61753        2.13857
C          2.91066        3.28768        4.39827
C          1.64802        2.39034        4.48312
F          1.85106        1.22257        3.83320
F          1.34652        2.09339        5.77864
F          0.56974        2.99380        3.94543
F          3.89241        2.68928        5.11611
F          2.61844        4.48106        4.99212
C          7.45858        2.75816        2.57308
C          7.74201        3.80324        3.47856
C          8.94580        3.86624        4.19030
C          9.92208        2.87081        4.05520
C          9.66156        1.82240        3.15764
C          8.47174        1.78099        2.42797
C         11.20030        2.90862        4.85705
H          6.59219       -3.10729        2.88234
H          7.36589       -2.57731        1.37405
H          5.78492       -3.38075        1.32217
H          6.31961       -0.62055        2.61047
H          4.75562       -1.41455        2.55193
H          4.86220       -1.39421        0.02612
H          6.38711       -0.50271        0.11566
H          3.67280        0.50820        1.16588
H          4.51025        1.06845       -0.29968
H          4.64667        3.67613        0.46796
H          5.02355        1.65840        3.00854
H          6.73650        2.01953        0.25810
H          6.99648        4.58370        3.64467
H          9.12533        4.70064        4.87647
H         10.41186        1.03703        3.01743
H          8.33190        0.96868        1.70824
H         11.36694        3.90198        5.29688
H         12.07496        2.65912        4.23735
H         11.17595        2.18145        5.68526
