59

Cl        -0.07773       -0.48585        0.22213
C          1.32152       -1.01901        1.19289
C          2.16261       -1.99590        0.67631
C          3.32941       -2.47193        1.40045
C          4.16708       -3.44344        0.89314
C          3.96241       -4.07824       -0.36897
C          2.82033       -3.61619       -1.08529
C          1.97158       -2.63739       -0.61023
Si         5.02704       -5.46517       -0.92767
C          5.05221       -6.85297        0.41249
C          3.64663       -7.11211        0.96597
C          3.47761       -8.27905        1.91913
C          4.24548       -8.29108        3.29148
C          4.14234       -7.05554        4.26264
C          2.75541       -6.60676        4.88215
C          1.95820       -7.64183        5.76262
C          0.85674       -6.98895        6.68276
F          0.06183       -6.16258        5.98436
F          0.09653       -7.97927        7.20221
F          1.40772       -6.31066        7.70527
F          1.32924       -8.53040        4.95783
F          2.80643       -8.31542        6.58569
F          3.05402       -5.54272        5.68595
F          1.94833       -6.17661        3.88690
F          4.98201       -7.31426        5.30789
F          4.61730       -5.96252        3.61020
F          3.85183       -9.39315        4.00085
F          5.57916       -8.42853        3.03459
F          2.13978       -8.43334        2.23137
F          3.86012       -9.46182        1.31101
C          4.38485       -6.23656       -2.54173
C          6.85871       -5.01679       -1.18876
C          1.43334       -0.27545        2.48076
C          0.37658       -0.62377        3.56488
C          0.47071       -2.09255        3.98746
C          0.49952        0.31559        4.76909
H          3.55746       -2.05480        2.38307
H          5.02650       -3.73583        1.50978
H          2.59075       -4.05286       -2.06363
H          1.11756       -2.33197       -1.21524
H          5.73006       -6.53236        1.21784
H          5.48094       -7.77490       -0.01222
H          2.94504       -7.34775        0.14835
H          3.24973       -6.20383        1.44213
H          3.35711       -6.61279       -2.43562
H          5.02297       -7.07633       -2.85565
H          4.38066       -5.49579       -3.35416
H          7.26578       -4.51888       -0.29633
H          6.96640       -4.31860       -2.03160
H          7.47874       -5.90374       -1.39570
H          1.36983        0.81762        2.29954
H          2.43619       -0.45070        2.90956
H         -0.61327       -0.46409        3.10202
H          1.41941       -2.28928        4.51422
H          0.43940       -2.74626        3.10473
H         -0.35249       -2.37354        4.66305
H          1.47596        0.18728        5.26603
H         -0.28153        0.11926        5.52014
H          0.41834        1.37025        4.46291
