40

N          1.71645       -0.81731        1.03716
Al         2.66784        0.20799       -0.19980
C          3.72595       -1.11681       -1.34612
C          4.26725       -0.78506       -2.60563
C          4.96176       -1.71484       -3.39007
C          5.14196       -3.03023       -2.94158
C          4.61140       -3.38650       -1.70204
C          3.91703       -2.44387       -0.92282
C          4.77632       -4.78594       -1.18177
F          5.41879       -5.61724       -2.05777
F          5.49804       -4.82910       -0.01865
F          3.57846       -5.38336       -0.89794
C          5.54361       -1.34018       -4.72241
F          5.16551       -0.10772       -5.15204
F          6.91854       -1.33794       -4.71146
F          5.19168       -2.22205       -5.71479
C          3.93259        1.42801        0.83229
C          3.22983        2.63858        1.38088
O          4.09869        3.44892        2.23020
C          3.41852        4.54924        2.78347
C          4.31464        5.27860        3.76524
O          5.27930        6.06628        3.07211
C          6.21432        6.65239        3.95082
H          0.78939       -1.16746        0.80161
H          1.67774       -0.50116        2.00451
H          1.75808        1.07152       -1.26869
H          4.12973        0.22650       -2.99743
H          5.67419       -3.75965       -3.55098
H          3.49456       -2.74803        0.04080
H          4.76968        1.74225        0.18657
H          4.36854        0.84340        1.66147
H          2.35084        2.35117        1.99648
H          2.85160        3.28309        0.56259
H          2.50872        4.21567        3.33150
H          3.07922        5.25810        1.99748
H          4.82290        4.53588        4.41146
H          3.69688        5.93445        4.41511
H          6.91131        7.24332        3.34184
H          6.78704        5.88653        4.50968
H          5.72581        7.32238        4.68781
