46

N          4.34476        0.09743        1.06882
C          4.38706        1.09049        0.00349
Sb         2.80818        0.70010       -1.58583
C          2.17560        2.90549       -1.63095
C          2.99960        3.95368       -2.07531
C          2.60391        5.29072       -1.94799
C          1.36426        5.64149       -1.37174
C          0.53894        4.58564       -0.93373
C          0.94379        3.25131       -1.05988
Si         0.85335        7.43971       -1.20069
C          0.68266        8.27793       -2.90867
C         -0.29517        7.58222       -3.86212
C         -0.56468        8.36117       -5.13099
F          0.56311        8.60918       -5.85241
F         -1.42472        7.69976       -5.96053
F         -1.13864        9.57987       -4.87809
C         -0.81129        7.58570       -0.30727
C          2.13987        8.45197       -0.24902
C          4.37485        0.95392       -3.35732
C          3.92917        1.77544       -4.49183
O          4.49504        2.76372       -4.94511
O          2.73372        1.38349       -5.06310
H          4.39331       -0.83711        0.64638
H          3.42742        0.13718        1.52299
H          5.36628        1.06354       -0.49678
H          4.22014        2.09810        0.41013
H          3.29596       -1.05167       -1.45869
H          1.63912        0.28885       -2.92055
H          1.55042        0.44244       -0.32410
H          3.96197        3.73964       -2.54789
H          3.27973        6.07339       -2.31118
H         -0.43287        4.80484       -0.47996
H          0.28475        2.45682       -0.68960
H          1.67846        8.33082       -3.37556
H          0.36317        9.31887       -2.73407
H         -1.27845        7.42502       -3.39295
H          0.08066        6.59309       -4.16081
H         -1.60959        7.03082       -0.82048
H         -1.12226        8.63902       -0.24389
H         -0.74460        7.19308        0.71735
H          3.12026        8.41732       -0.74474
H          2.26907        8.06182        0.77027
H          1.83529        9.50698       -0.17495
H          4.40692       -0.11479       -3.60567
H          5.34230        1.29677       -2.97458
H          2.27750        0.78663       -4.41916
