33

C          0.68660       -2.47085        0.80938
C          2.11054       -2.30782        1.36184
C          3.10868       -1.71017        0.36442
Ga         4.93645       -1.37568        1.17121
C          5.99298        0.01433       -0.01258
C          6.13482       -0.22654       -1.52731
F          6.75753       -1.40716       -1.77870
F          4.91477       -0.27202       -2.12774
F          6.85292        0.74000       -2.18269
F          5.40427        1.28710        0.08339
F          7.30728        0.18788        0.44497
C          6.06319       -3.04102        1.39628
C          5.86466       -4.21517        0.64812
C          6.62628       -5.37272        0.85741
C          7.63322       -5.40719        1.83115
C          7.84714       -4.24417        2.58823
C          7.07764       -3.09684        2.37350
C          8.46893       -6.64570        2.05430
H         -0.00449       -2.90446        1.55200
H          0.68148       -3.12451       -0.07755
H          0.27696       -1.49692        0.49729
H          2.47313       -3.29047        1.71113
H          2.07130       -1.67375        2.26465
H          2.72624       -0.74167       -0.00335
H          3.18689       -2.36154       -0.52435
H          4.85724       -0.60040        2.57172
H          5.08759       -4.23719       -0.12300
H          6.43505       -6.26843        0.25639
H          8.62478       -4.24265        3.36005
H          7.26767       -2.21433        2.99257
H          8.05204       -7.50939        1.51685
H          8.52673       -6.90804        3.12217
H          9.50435       -6.50518        1.70260
