35

N          1.00010        3.01267        3.64345
C          2.37665        2.74094        4.10759
C          3.28868        2.33951        2.95063
C          4.74770        2.09765        3.37777
C          5.67988        1.61827        2.26429
Ta         7.87599        1.49963        2.52209
C          8.37509        0.78227        0.45488
C          7.63748        1.34605       -0.78159
C          7.93088        2.81137       -1.10116
N          7.29999        3.20844       -2.37937
C          8.36754        3.65558        2.57583
H          0.38054        3.15606        4.44329
H          0.64384        2.18777        3.15516
H          2.42567        1.95311        4.88661
H          2.75993        3.66551        4.57134
H          3.24819        3.12096        2.17313
H          2.89379        1.41829        2.48198
H          4.77344        1.36030        4.19768
H          5.13304        3.03857        3.81321
H          5.59226        2.30749        1.39048
H          5.34477        0.62763        1.89596
H          8.93951        1.66936        3.95215
H          8.95494        0.08484        2.74484
H          7.23461        0.50354        3.86944
H          8.18481       -0.30562        0.50621
H          9.47005        0.85704        0.30082
H          6.54528        1.23224       -0.67191
H          7.90364        0.76127       -1.68960
H          9.02921        2.96644       -1.09224
H          7.51817        3.46028       -0.31389
H          7.68199        2.63218       -3.13329
H          7.54559        4.17371       -2.60758
H          9.44574        3.87018        2.48833
H          8.03429        4.09802        3.53116
H          7.84876        4.19989        1.75985
