40

N          0.54526        0.27734        0.94390
C          2.00788        0.16882        0.76630
C          2.29440       -0.28716       -0.66185
C          3.74662       -0.58499       -1.08351
S          4.59211        0.99997       -1.56630
O          3.99894        2.09325       -0.80282
O          6.05657        0.87820       -1.55095
C          4.07060        1.50930       -3.41639
C          5.22220        1.77272       -4.46078
C          6.09156        0.62282       -5.08848
F          5.32944       -0.28489       -5.70897
F          6.87534        1.21878       -6.04409
F          6.90904        0.04315       -4.21605
F          4.60332        2.37253       -5.53308
F          6.07768        2.67951       -3.91614
F          3.11608        0.72143       -3.94058
F          3.51479        2.74010       -3.22921
C          4.58096       -1.32756       -0.01724
C          4.59992       -2.73312       -0.15348
C          5.25970       -3.57075        0.73972
C          5.94807       -3.02714        1.82311
C          5.93167       -1.64904        1.99764
C          5.25570       -0.78775        1.10935
C          5.34562        0.64427        1.62160
O          4.72088        1.00142        2.60096
O          6.29545        1.43384        1.08418
C          3.76167       -1.48444       -2.44816
O          2.79508       -2.25457       -2.59220
O          4.77965       -1.29011       -3.14660
H          0.34217        0.59456        1.89282
H          0.12164       -0.64952        0.85577
H          2.48142       -0.52578        1.48320
H          2.43858        1.16169        0.94905
H          1.84718        0.43394       -1.36265
H          1.78525       -1.24509       -0.86686
H          4.06175       -3.17417       -0.99168
H          5.23979       -4.64924        0.57523
H          6.48432       -3.66237        2.53013
H          6.43961       -1.20470        2.85492
H          6.49660        1.12824        0.16079
