39

N          3.89895       -2.07393        2.32890
C          3.68559       -0.91067        1.44538
C          4.62687        0.23146        1.82000
C          4.41796        1.44576        0.90537
C          5.20416        2.68460        1.38706
S          4.74591        3.99686        0.18550
O          5.71897        4.10286       -0.90221
O          3.32810        3.93546       -0.13968
C          4.94829        5.68534        1.10354
C          4.86350        6.97639        0.19680
C          3.57686        7.30784       -0.65428
C          2.19282        7.45385        0.07605
F          2.26748        8.36201        1.07205
F          1.29072        7.90843       -0.83251
F          1.74627        6.29856        0.56516
F          3.82552        8.53062       -1.22640
F          3.43551        6.40567       -1.64905
F          5.04675        8.04065        1.04301
F          5.89588        6.97397       -0.68470
F          4.02091        5.81850        2.07687
F          6.18786        5.73475        1.66287
C          4.62018        3.09971        2.90029
O          3.39028        2.94661        3.02486
O          5.51014        3.45801        3.69505
C          6.73600        2.50300        1.42460
C          7.40537        1.77289        0.25282
H          3.19835       -2.79136        2.13434
H          3.74300       -1.78454        3.29745
H          2.64633       -0.52776        1.46765
H          3.88447       -1.23635        0.41006
H          5.66516       -0.13310        1.78264
H          4.42143        0.53565        2.85893
H          3.35466        1.71561        0.91953
H          4.68972        1.17816       -0.13081
H          6.92793        1.96395        2.36364
H          7.20833        3.48110        1.57784
H          7.01229        0.75403        0.12250
H          8.48483        1.68019        0.44720
H          7.27625        2.31209       -0.69310
