15

C          0.93901       -0.05642       -0.09824
C          2.47103       -0.06318       -0.06162
C          3.05758       -0.25038        1.34313
C          4.60155       -0.25300        1.37046
N          4.99852       -0.44028        2.73943
I          7.12159       -0.44584        2.83521
H          0.55149        0.08184       -1.12067
H          0.52921        0.75357        0.52560
H          0.52813       -1.00294        0.28756
H          2.84878        0.88197       -0.48839
H          2.84748       -0.86384       -0.72131
H          2.69761       -1.20007        1.77658
H          2.69593        0.55103        2.01106
H          4.93493        0.71164        0.88858
H          4.93687       -1.05173        0.64684
