31

O          0.59591        0.26352       -0.02581
B          1.85586        0.18976       -0.70208
S          2.75019       -1.60765       -0.11886
O          1.69298       -2.64064       -0.16572
O          4.02675       -1.91236       -0.79297
C          3.23532       -1.58277        1.79731
C          4.20233       -2.71617        2.25186
C          4.34701       -2.91690        3.80414
F          4.67068       -1.76160        4.42247
F          3.21581       -3.39545        4.35888
F          5.33657       -3.81266        4.05907
F          3.78052       -3.91222        1.75345
F          5.45341       -2.45978        1.78287
F          3.82370       -0.38270        2.07701
F          2.08869       -1.66890        2.54069
C          2.81835        1.43974       -0.44791
C          2.44241        2.48379        0.41931
C          3.25713        3.60107        0.62210
C          4.49144        3.72448       -0.03359
C          4.87883        2.68738       -0.89606
C          4.05764        1.57624       -1.10193
C          5.36224        4.94266        0.16323
H          0.08159       -0.53356       -0.21964
H          1.85210       -0.21387       -1.86687
H          1.48727        2.40751        0.94446
H          2.93377        4.39279        1.30601
H          5.84207        2.75365       -1.41225
H          4.39146        0.78010       -1.77221
H          5.33864        5.29138        1.20650
H          5.02974        5.78550       -0.46625
H          6.40881        4.73233       -0.10058
