38

N          2.23623       -4.56691       -4.39654
C          2.35825       -3.18327       -4.89160
C          3.11583       -2.29795       -3.89875
C          4.59593       -2.65173       -3.68018
C          5.32876       -1.72174       -2.70188
Al         7.29296       -2.13485       -2.39467
C          8.05907       -0.77508       -1.05463
C          7.49647       -0.97035        0.35609
C          8.01550       -0.06255        1.47143
O          7.68033       -0.12436        2.63905
O          8.92163        0.87238        1.06448
C          8.35644       -2.03300       -4.13724
C          8.18956       -0.74596       -4.95115
C          8.92051       -0.59857       -6.28942
O          8.78432        0.38029       -7.02973
N          9.75465       -1.63296       -6.60881
H          1.65301       -5.12138       -5.02442
H          1.76397       -4.56310       -3.48987
H          1.37669       -2.71486       -5.11562
H          2.91579       -3.22054       -5.84323
H          2.59036       -2.32063       -2.92472
H          3.04705       -1.25286       -4.24710
H          5.09786       -2.63312       -4.66617
H          4.66728       -3.69624       -3.33603
H          4.80751       -1.75053       -1.72478
H          5.22367       -0.67494       -3.05124
H          7.50612       -3.63177       -1.73765
H          7.84072        0.24083       -1.43610
H          9.15663       -0.91654       -1.06521
H          7.66171       -2.00365        0.70470
H          6.39961       -0.85123        0.36641
H          9.02257        0.70699        0.09554
H          8.05077       -2.90899       -4.74029
H          9.41912       -2.18972       -3.87082
H          8.49551        0.13708       -4.36269
H          7.12737       -0.56068       -5.18539
H          9.79211       -2.44349       -5.99998
H         10.23624       -1.62147       -7.49810
