33

C          0.47070       -0.43105       -0.04774
C          1.97606       -0.70412        0.03707
C          2.65871       -0.03177        1.23412
C          4.16282       -0.31472        1.33994
C          4.85772        0.38053        2.52170
B          6.41986       -0.04421        2.65978
C          7.38155        0.27054        1.38552
C          8.08882       -0.83316        0.85990
C          8.89843       -0.76214       -0.27436
C          9.02131        0.44878       -0.96149
C          8.32828        1.56005       -0.49105
C          7.53259        1.49056        0.66845
C          6.88579        2.80806        1.02446
O          6.54863        3.61291        0.16519
O          6.74280        3.13069        2.32137
Cl         7.21090        0.87798        4.25295
H          0.01374       -0.91038       -0.92693
H          0.26621        0.64858       -0.11388
H         -0.05275       -0.80703        0.84502
H          2.46385       -0.36444       -0.89237
H          2.14926       -1.79328        0.08503
H          2.16165       -0.35736        2.16666
H          2.49937        1.06005        1.17574
H          4.65023       -0.00969        0.39691
H          4.31855       -1.40703        1.41319
H          4.33685        0.10429        3.45682
H          4.72033        1.47125        2.41715
H          6.53103       -1.22696        2.95224
H          7.98480       -1.78664        1.38274
H          9.42936       -1.65142       -0.62447
H          9.64587        0.52670       -1.85426
H          8.38147        2.51580       -1.01449
H          7.01089        2.38674        2.93789
