27

In         1.25340       -0.03052        0.73786
C          0.10371       -1.62079       -0.38901
C          0.54948       -3.05941       -0.10357
C          0.36319       -3.51577        1.34898
C         -1.41319       -1.43999       -0.25139
C         -0.05404        1.79559        0.86743
C          0.67638        3.13460        1.08365
C         -0.28916        4.26416        1.40392
O         -0.64495        5.13671        0.61273
N         -0.76925        4.25358        2.70702
I          3.33661        0.66578       -1.15400
H          2.10165       -0.38102        2.25551
H          0.38084       -1.38672       -1.43032
H          1.61151       -3.16718       -0.37885
H         -0.00917       -3.76248       -0.76120
H          0.92844       -2.86586        2.03440
H          0.70936       -4.55053        1.49600
H         -0.69454       -3.47729        1.65162
H         -1.76571       -1.54660        0.78761
H         -1.97318       -2.18845       -0.85146
H         -1.73550       -0.44504       -0.59248
H         -0.74889        1.59206        1.70200
H         -0.67127        1.85588       -0.04240
H          1.23173        3.41258        0.17848
H          1.40794        3.04865        1.90495
H         -0.69289        3.38988        3.23337
H         -1.60217        4.80846        2.87486
