33

C          0.72780       -0.77739        0.79959
C          1.65318        0.19002        0.05484
C          2.76997        0.76884        0.93028
C          3.71928        1.70891        0.18365
C          4.83576        2.29468        1.07560
C          5.74951        3.23673        0.35835
C          6.92734        2.90329       -0.28290
C          7.34389        1.51331       -0.42323
C          8.18573        1.11946       -1.43165
C          8.75460        2.06452       -2.34218
C          8.58292        3.40990       -2.07411
C          7.79343        3.87727       -0.99316
C          8.10730        5.21226       -0.50377
O          8.73227        6.09281       -1.10300
O          7.71133        5.49497        0.80396
O          5.15671        4.50353        0.23462
H         -0.06251       -1.17478        0.14534
H          0.23660       -0.28270        1.65194
H          1.29000       -1.63508        1.20028
H          1.05880        1.01843       -0.36727
H          2.10467       -0.32544       -0.80993
H          3.35081       -0.06248        1.37116
H          2.31980        1.30467        1.78644
H          3.14972        2.54373       -0.25677
H          4.18978        1.17486       -0.65853
H          5.41532        1.46930        1.51866
H          4.36540        2.82882        1.92300
H          6.91685        0.75772        0.24091
H          8.43032        0.05810       -1.53324
H          9.39965        1.73233       -3.15708
H          9.13693        4.16779       -2.63299
H          7.26773        4.68936        1.14791
H          5.68411        4.99606       -0.42364
