71

N          1.82431       -5.86004        3.84949
C          1.73943       -5.27386        2.49757
C          2.57915       -3.99694        2.37875
C          4.09116       -4.19441        2.53444
Ga         5.16188       -2.50657        2.36091
S          4.72432       -2.21325       -0.10412
O          5.21446       -3.36952       -0.88324
O          3.34086       -1.75974       -0.37228
C          5.83838       -0.71550       -0.77806
C          5.29958       -0.00081       -2.04917
C          6.31184        0.94376       -2.79214
F          6.85726        1.84181       -1.94391
F          7.30653        0.25064       -3.37830
F          5.66379        1.63436       -3.76483
F          4.90904       -0.93278       -2.96330
F          4.22904        0.76994       -1.71577
F          5.93836        0.20358        0.23152
F          7.09438       -1.18700       -1.03699
C          7.16101       -2.66122        2.45761
C          7.84982       -3.85239        2.15631
C          9.23984       -3.94598        2.26746
C         10.01720       -2.84385        2.68185
C          9.33383       -1.64698        2.97267
C          7.94200       -1.56426        2.86545
Si        11.87583       -2.99569        2.88481
C         12.63641       -3.88878        1.38001
C         12.45177       -3.15818        0.04275
C         13.11059       -3.89720       -1.10968
C         12.92025       -3.29960       -2.55046
C         13.40854       -1.83634       -2.87719
C         14.93519       -1.42747       -2.76842
C         15.99022       -2.22958       -3.61908
C         17.38001       -1.50138       -3.77508
F         17.86295       -1.11342       -2.57952
F         18.25468       -2.36663       -4.32858
F         17.28696       -0.42813       -4.57832
F         16.23212       -3.42329       -3.02808
F         15.51464       -2.44111       -4.87322
F         14.98607       -0.12631       -3.18050
F         15.30906       -1.46828       -1.46490
F         13.01831       -1.57573       -4.15338
F         12.75013       -0.97311       -2.05312
F         13.52486       -4.12858       -3.45194
F         11.58400       -3.29265       -2.81392
F         14.46860       -4.02766       -0.90245
F         12.61253       -5.17687       -1.20805
C         12.68115       -1.29166        3.06238
C         12.30977       -4.04066        4.40268
H          1.22538       -6.68419        3.91518
H          1.46253       -5.18783        4.53008
H          0.69763       -5.04295        2.19152
H          2.12208       -6.02471        1.78601
H          2.21334       -3.27020        3.12887
H          2.35635       -3.53994        1.40182
H          4.45357       -4.90879        1.77668
H          4.32112       -4.63905        3.51615
H          4.61329       -1.15981        2.98548
H          7.29007       -4.72893        1.81819
H          9.72466       -4.89756        2.02321
H          9.89460       -0.76112        3.28629
H          7.45012       -0.61529        3.09996
H         12.19238       -4.89443        1.31865
H         13.70948       -4.03585        1.58345
H         12.88615       -2.14959        0.08417
H         11.38481       -3.04013       -0.19836
H         12.45118       -0.63560        2.21096
H         13.77490       -1.38605        3.13339
H         12.33291       -0.78294        3.97249
H         11.85776       -5.04022        4.33139
H         11.92469       -3.56902        5.31776
H         13.39738       -4.16459        4.51262
