39

N          4.71589       -0.00777       -1.90305
C          5.42369       -0.73457       -0.98586
O          5.82661       -1.87359       -1.23216
C          5.66456       -0.04604        0.36286
C          5.24160        1.41091        0.54058
Ta         5.86995        2.59702        2.29433
C          5.14736        4.60987        1.75277
O          5.71204        4.94305        0.36900
C          5.30943        6.05726       -0.20899
F          5.58229        7.20340        0.50480
F          5.93049        6.19381       -1.41567
F          3.95341        6.10967       -0.46127
C          8.03380        2.60184        1.90115
C          9.07828        3.39889        2.67812
C         10.48536        3.27523        2.05452
C         11.57245        4.01807        2.80086
C         12.99269        3.90870        2.16410
F         13.39053        2.61573        2.09344
F         12.99823        4.41518        0.90787
F         13.91513        4.58482        2.88578
F         11.30054        5.36729        2.88460
F         11.70337        3.55710        4.09411
H          4.61114       -0.38115       -2.83800
H          4.49640        0.96363       -1.71326
H          6.74376       -0.17929        0.54854
H          5.17095       -0.67650        1.11958
H          4.14232        1.51784        0.47115
H          5.68069        2.04708       -0.26372
H          6.52515        2.16680        3.89200
H          4.85696        3.29440        3.60013
H          4.90537        1.30478        3.05093
H          5.49365        5.41044        2.42577
H          4.05138        4.68182        1.66863
H          8.05762        2.91155        0.82997
H          8.30191        1.52434        1.91002
H          9.10319        3.05096        3.72076
H          8.80355        4.46518        2.70840
H         10.47291        3.65429        1.02099
H         10.78126        2.21608        2.00549
