35

C          1.61037        0.90052        1.74039
C          2.91541        0.54931        1.01736
C          3.42421        1.67174        0.09351
C          4.72833        1.36080       -0.63979
Nb         5.30879        3.01250       -2.08243
C          3.90492        4.26942       -3.23815
C          3.22286        5.29351       -2.54523
C          2.36397        6.19382       -3.19369
C          2.16890        6.13358       -4.57823
C          2.85616        5.13394       -5.29124
C          3.68661        4.22478       -4.63407
C          1.24958        7.10036       -5.28629
C          7.32755        3.61958       -2.69697
H          1.26495        0.08738        2.39846
H          0.80567        1.11128        1.01861
H          1.73440        1.80283        2.35960
H          2.77522       -0.37019        0.42316
H          3.69970        0.31489        1.75831
H          3.54318        2.59570        0.68689
H          2.62554        1.88715       -0.64365
H          4.65228        0.38323       -1.13589
H          5.56841        1.31149        0.08224
H          5.23796        3.72127       -0.38144
H          6.06670        1.52261       -2.65769
H          4.22724        1.89985       -2.94791
H          3.35593        5.39227       -1.46218
H          1.84035        6.96178       -2.61340
H          2.71863        5.06187       -6.37606
H          4.16928        3.43850       -5.22395
H          0.79958        7.81074       -4.57806
H          0.42732        6.57639       -5.80020
H          1.78356        7.68464       -6.05306
H          7.38352        4.70952       -2.49047
H          7.52356        3.46186       -3.77061
H          8.12741        3.11560       -2.13062
