21

N          0.67967       -0.75816        1.75284
C          2.03432       -1.34176        1.88542
N          2.99352       -0.33012        1.58593
C          4.30819       -0.60923        1.64091
C          4.86089       -1.87971        2.01726
C          6.23416       -2.09383        2.04671
C          7.14055       -1.07453        1.71020
C          6.62894        0.17300        1.34155
C          5.25720        0.43241        1.29675
C          4.80456        1.80117        0.88500
O          5.59327        2.69812        0.56787
O          3.48180        1.99288        0.88140
H          0.01064       -1.50016        1.53735
H          0.70452       -0.14488        0.93338
H          2.16699       -2.23280        1.21903
H          2.13028       -1.72565        2.92802
H          4.18600       -2.69314        2.28918
H          6.61077       -3.07983        2.33766
H          8.21712       -1.25232        1.73748
H          7.28971        0.99978        1.07049
H          3.02948        1.04766        1.18906
