30

N          1.41318        0.19111        0.18524
C          2.74867        0.62423        0.62790
C          3.32320        1.78238       -0.16358
Ta         4.93710        0.41828       -0.76485
C          6.90630       -0.50467       -0.49099
C          8.01555       -0.13316        0.36233
C          8.01517       -0.40659        1.69908
C          6.93834       -1.17515        2.27079
C          5.96883       -1.72084        1.48417
C          5.88680       -1.52154        0.02811
C          5.69236       -2.81430       -0.71052
O          5.94973       -3.91968       -0.25092
O          5.19621       -2.72414       -1.98369
N          5.72036        1.53636       -2.24504
H          1.21357       -0.73513        0.57418
H          1.46547        0.04060       -0.82687
H          3.46505       -0.28833        0.59962
H          2.72303        0.84316        1.70528
H          3.46236        2.70383        0.41024
H          2.69950        1.99167       -1.05303
H          5.29789        0.89067        0.92233
H          7.16129       -0.63604       -1.55959
H          3.72886       -0.70863       -1.59862
H          8.85695        0.39842       -0.09148
H          8.83310       -0.06283        2.33549
H          6.92969       -1.36462        3.34678
H          5.23727       -2.40173        1.92602
H          4.67360       -1.86543       -1.99821
H          6.61670        1.44183       -2.71683
H          5.20067        2.31048       -2.65676
