13

C          1.65161        0.60692       -0.65991
C          0.61589        1.70399       -0.54641
C         -0.70463        1.31313        0.14279
N         -1.60942        2.48223        0.32881
S          2.49678        0.13383        0.77122
H          1.33455       -0.23238       -1.30070
H          0.36822        2.10942       -1.54917
H          1.04977        2.54680        0.03286
H         -0.45240        0.81575        1.09892
H         -1.23151        0.57174       -0.48232
H         -1.05350        3.23483        0.74518
H         -2.32852        2.26215        1.02393
H          1.64016       -0.51113        1.74960
