48

N          2.56332       -0.97597        3.70199
C          4.00745       -0.89152        3.40302
C          4.26046       -0.34639        1.99732
C          3.78937        1.09270        1.74732
C          4.52219        2.16848        2.57410
C          6.04206        2.22260        2.53214
S          6.90365        2.21165        1.12713
O          8.35263        2.11699        1.35082
O          6.28540        1.41666        0.05817
C          6.81370        3.98875        0.29967
C          7.67686        4.40067       -0.92742
C          7.54115        3.61907       -2.28907
C          6.14288        3.55864       -3.00388
F          5.61064        4.79322       -3.14113
F          6.33135        3.05331       -4.25325
F          5.26982        2.77381       -2.37209
F          8.37340        4.26577       -3.17338
F          7.99143        2.35404       -2.15049
F          7.42580        5.72928       -1.23112
F          8.99336        4.31748       -0.59222
F          5.49859        4.24654       -0.03381
F          7.15194        4.89869        1.28185
C          6.74589        2.76663        3.75328
C          6.89750        1.73297        4.88966
C          7.61529        2.34673        6.09934
C          7.71181        1.42280        7.29161
C          8.48947        2.01175        8.50849
F          7.91711        3.16483        8.93316
F          8.50688        1.15136        9.55152
F          9.77277        2.28310        8.17306
F          6.46165        1.08631        7.77048
F          8.34703        0.24212        6.97492
H          2.41806       -1.37708        4.62960
H          2.11831       -1.61568        3.03990
H          4.52701       -1.86593        3.50182
H          4.46072       -0.22216        4.15044
H          3.76812       -1.01757        1.26907
H          5.33826       -0.40199        1.78684
H          2.71271        1.17219        1.97017
H          3.92252        1.30978        0.67939
H          4.25486        2.02052        3.63624
H          4.07177        3.14868        2.31356
H          6.20367        3.64748        4.16008
H          7.75047        3.11889        3.47635
H          7.46421        0.87164        4.50972
H          5.90757        1.36257        5.19806
H          7.09315        3.25744        6.43310
H          8.63800        2.64543        5.82097
