22

I          3.16864       -2.43692        1.62295
Ga         3.70822       -0.17833        0.10842
C          4.53142        1.25083        1.28800
C          3.60376        2.17939        2.08575
C          2.92159        1.44173        3.24363
C          4.35148        3.41777        2.61288
C          1.88666        0.18043       -0.70933
N          0.78514        0.13133        0.27508
H          4.77237       -0.71695       -0.96047
H          5.13083        1.85249        0.57810
H          5.26042        0.77313        1.96655
H          2.80531        2.53787        1.41007
H          3.67548        1.06048        3.95275
H          2.34682        0.57996        2.88094
H          2.23883        2.10643        3.79742
H          5.16029        3.11538        3.29924
H          3.68132        4.10076        3.16303
H          4.81305        3.98411        1.78888
H          1.76680       -0.53739       -1.54542
H          1.92214        1.18940       -1.16081
H          0.92645       -0.68620        0.87781
H         -0.11396       -0.01621       -0.19048
