31

N          1.02138       -1.97529        1.74325
C          2.47914       -1.81818        1.51068
C          2.97692       -0.48203        2.05612
Al         4.89836       -0.05401        1.84812
S          5.55485       -0.32113       -0.51193
O          6.95882       -0.73989       -0.61271
O          4.54840       -1.04287       -1.30988
C          5.67366        1.50774       -1.34542
C          4.51851        2.03561       -2.24443
C          3.15731        2.35302       -1.54015
F          3.27688        3.40115       -0.70031
F          2.23720        2.67637       -2.47956
F          2.69695        1.29871       -0.84620
F          4.91215        3.21888       -2.83121
F          4.28201        1.14513       -3.23988
F          5.88138        2.40644       -0.33471
F          6.77941        1.48566       -2.13257
S          6.24568       -1.80186        2.90078
O          5.51606       -3.08353        2.90462
O          7.69061       -1.81163        2.64159
C          6.14911       -1.25880        4.76189
F          4.87669       -0.89085        5.08214
F          6.50841       -2.27452        5.57466
F          6.95550       -0.20550        5.02217
H          0.70620       -2.85908        1.33463
H          0.52746       -1.24120        1.22853
H          2.75107       -1.90361        0.44325
H          2.98559       -2.64156        2.03580
H          2.74251       -0.41090        3.13296
H          2.42423        0.34701        1.57499
H          5.52691        1.31732        2.37134
