37

N          1.19715       -0.67436       -0.46245
C          2.41368       -0.15352        0.21285
Al         3.18250        1.43715       -0.78494
C          1.94581        3.16294       -0.64129
C          1.16802        3.60800        0.62985
C          2.03925        3.85710        1.90529
C          1.28336        4.44743        3.15208
F          0.20027        3.71914        3.48416
F          2.12659        4.44482        4.21582
F          0.89520        5.72211        2.94664
F          2.58380        2.67524        2.30962
F          3.05048        4.72968        1.63763
F          0.45202        4.77347        0.41442
F          0.25990        2.63785        0.95059
F          2.66745        4.30746       -1.04238
F          0.91461        3.05040       -1.59234
C          5.11098        1.95190       -0.41577
C          5.69619        2.07960        0.99983
C          5.62921        0.78270        1.81349
C          6.23227        0.89291        3.21673
C          6.18749       -0.42241        3.99931
H          1.05239       -1.66866       -0.27252
H          1.30470       -0.58580       -1.47483
H          3.22556       -0.91209        0.27343
H          2.15489        0.08628        1.26017
H          3.03092        1.10431       -2.38600
H          5.26775        2.90212       -0.95850
H          5.70935        1.20801       -0.97874
H          5.16795        2.87103        1.55858
H          6.75717        2.40387        0.96717
H          6.15065       -0.01804        1.25670
H          4.57938        0.45449        1.89230
H          5.69358        1.67434        3.77978
H          7.27738        1.24132        3.13963
H          5.15283       -0.78107        4.10750
H          6.61348       -0.31705        5.00866
H          6.75267       -1.21086        3.47830
