64

C          9.22465        5.80107       -0.48748
C          8.65845        4.38385       -0.37057
C          9.15569        3.63285        0.86862
C          8.59154        2.21501        1.00113
C          9.10642        1.45960        2.23062
C          8.53084        0.04715        2.37323
C          9.07888       -0.72636        3.57973
C          8.50093       -2.14289        3.71631
Si         9.21115       -3.21247        5.12358
C          8.85872       -2.48953        6.82298
C          7.53821       -2.22293        7.24021
C          7.26175       -1.76204        8.53229
C          8.27310       -1.54903        9.49273
C          9.58879       -1.80689        9.05926
C          9.87951       -2.25846        7.76594
In         7.82969       -0.79506       11.56200
C          5.57468       -0.91331       11.74376
O          5.11955       -0.00516       12.83437
C          3.81351        0.14781       12.97795
F          3.12662       -1.01797       13.23692
F          3.57536        0.98297       14.02470
F          3.18126        0.69814       11.88355
C          8.29369        1.42460       11.49760
C          9.61619        1.75002       10.80542
C         10.00808        3.22445       10.67640
O         11.07101        3.62712       10.24612
O          9.05098        4.10741       11.08216
C          8.39502       -4.91874        4.98345
C         11.07754       -3.40963        4.86587
H          8.85677        6.31349       -1.38793
H         10.32398        5.78698       -0.53648
H          8.94343        6.41300        0.38282
H          8.92139        3.80620       -1.27343
H          7.55619        4.42744       -0.35016
H          8.89785        4.21275        1.77228
H         10.25904        3.58648        0.84599
H          8.83762        1.63901        0.09082
H          7.48876        2.26438        1.03805
H          8.87409        2.04045        3.13999
H         10.20838        1.40070        2.18447
H          8.73979       -0.52702        1.45221
H          7.43053        0.10589        2.44918
H          8.87636       -0.15671        4.50197
H         10.17844       -0.77725        3.49424
H          8.65692       -2.70157        2.77472
H          7.40575       -2.08567        3.84757
H          6.70347       -2.38271        6.54736
H          6.21559       -1.57080        8.79432
H         10.42535       -1.65902        9.75045
H         10.92380       -2.43930        7.49226
H          8.71937       -1.65519       12.82438
H          5.19904       -1.91922       11.98120
H          5.08874       -0.57254       10.81634
H          8.27540        1.78515       12.53863
H          7.43284        1.85879       10.95940
H          9.63322        1.35002        9.77728
H         10.46852        1.26220       11.30548
H          8.30875        3.54357       11.40614
H          7.30839       -4.84576        5.13556
H          8.78863       -5.60150        5.75000
H          8.56964       -5.37349        3.99663
H         11.60379       -2.44682        4.93086
H         11.28751       -3.84242        3.87642
H         11.51335       -4.07802        5.62221
