20

N          2.19796        1.14898        0.07619
Nb         3.71509       -0.24121        0.09399
S          4.66302       -1.22396        2.17538
O          5.92988       -1.13181        2.93944
O          3.72101        0.02157        2.29664
C          3.68833       -2.46054        3.10407
C          4.16024        0.58777       -1.85154
N          5.12959        0.23025       -2.86347
H          1.94845        1.54335        0.98396
H          1.68947        1.63601       -0.65855
H          5.44159        0.19441        0.36456
H          4.70672       -1.38786       -0.88127
H          2.89751       -1.85154        0.00700
H          4.24141       -3.40751        3.08685
H          2.71347       -2.56360        2.61618
H          3.59563       -2.08531        4.13162
H          3.82348        1.62275       -2.03079
H          3.21406       -0.07497       -1.97984
H          5.69315       -0.54248       -2.50367
H          5.75128        1.01758       -3.04237
