9

N          1.04536        0.09474       -0.03310
C          2.46225        0.05066       -0.04346
C          3.03118        1.43928        0.30619
H          0.69090       -0.84405       -0.26667
H          2.96847       -0.23363       -1.03171
H          2.96738       -0.66759        0.69296
H          2.66036        2.17999       -0.42318
H          4.13736        1.45330        0.30931
H          2.66034        1.74731        1.29894
