42

O          1.82056        0.61426        0.07891
C          2.39002       -0.48167       -0.50774
O          1.81838       -1.55645       -0.45519
C          3.69090       -0.20081       -1.22868
B          4.66755        0.97780       -0.60673
C          5.45670        0.46532        0.72630
F          6.28234       -0.63913        0.53017
F          6.29087        1.41738        1.28891
F          4.62073        0.08191        1.76126
C          5.68615        1.53060       -1.73515
C          6.67223        0.71970       -2.33948
C          7.50169        1.19553       -3.35408
C          7.39215        2.51701       -3.83528
C          6.41620        3.33559       -3.23754
C          5.59342        2.84980       -2.21814
Si         8.59043        3.14041       -5.12434
C         10.32985        3.18169       -4.34064
C         10.35593        3.93766       -3.00666
C         11.72966        4.04371       -2.38322
F         12.28764        2.82860       -2.11899
F         12.61816        4.71011       -3.18570
F         11.69803        4.72544       -1.20031
C          8.66474        1.99226       -6.62540
C          8.14567        4.88736       -5.70057
H          2.51478        1.31809        0.03215
H          3.39387        0.13500       -2.23957
H          4.20066       -1.16455       -1.37335
H          3.98542        1.94494       -0.21785
H          6.79562       -0.31079       -1.99831
H          8.25318        0.52106       -3.77911
H          6.29276        4.37106       -3.56858
H          4.84717        3.51420       -1.77391
H         11.03874        3.63119       -5.05470
H         10.65482        2.14106       -4.18318
H          9.70193        3.45000       -2.26846
H          9.99289        4.97094       -3.11824
H          8.90606        0.96416       -6.32071
H          9.42634        2.32105       -7.34755
H          7.69237        1.96731       -7.13714
H          8.14346        5.60679       -4.86984
H          7.14653        4.90578       -6.15782
H          8.86921        5.23995       -6.44992
