51

C          7.77750       -2.55003        1.43719
C          7.07096       -2.12855        0.13873
C          5.54234       -2.10171        0.24517
In         4.41251       -1.29949       -1.51595
C          3.61424        0.85344       -0.94972
C          4.34770        1.80216        0.02993
C          5.76253        2.30160       -0.40364
F          6.59716        1.27427       -0.65283
F          5.70759        3.08413       -1.50109
F          6.31176        3.04371        0.59660
F          3.62311        2.94982        0.29714
F          4.51491        1.15423        1.22784
F          3.36923        1.63716       -2.09559
F          2.35166        0.69742       -0.35391
C          5.74836       -0.96397       -3.28941
C          6.71033       -1.92568       -3.66188
C          7.55133       -1.75631       -4.76629
C          7.47546       -0.60185       -5.57240
C          6.52134        0.36829       -5.20825
C          5.68627        0.18833       -4.09893
Si         8.59305       -0.40323       -7.06017
C          8.37771       -1.93930       -8.17775
C          9.27949       -1.96812       -9.41583
C          9.13374       -3.21518      -10.26146
F          7.86678       -3.38789      -10.73227
F          9.95353       -3.17511      -11.35943
F          9.45833       -4.35126       -9.58058
C          8.15472        1.14779       -8.05412
C         10.41615       -0.29409       -6.54991
H          8.87469       -2.57128        1.32534
H          7.45115       -3.55245        1.75726
H          7.53712       -1.85246        2.25482
H          7.38193       -2.81139       -0.67035
H          7.44948       -1.13732       -0.15963
H          5.24253       -1.47511        1.10167
H          5.16106       -3.11457        0.45832
H          2.91572       -2.14235       -1.93369
H          6.81523       -2.84406       -3.07510
H          8.27822       -2.54281       -5.00082
H          6.42216        1.28428       -5.79981
H          4.96569        0.97607       -3.86403
H          7.31971       -1.98943       -8.47860
H          8.56168       -2.83114       -7.55816
H         10.34356       -1.91077       -9.14119
H          9.07266       -1.11890      -10.08466
H          7.11256        1.12247       -8.40280
H          8.80494        1.25399       -8.93526
H          8.28012        2.05296       -7.44299
H         10.72046       -1.18309       -5.97876
H         10.57477        0.58082       -5.90363
H         11.08868       -0.19817       -7.41565
