63

C          0.79845        0.26832       -0.09348
Si         2.66270        0.04018       -0.32254
C          3.25245        0.78745       -1.93921
C          3.24704        2.18696       -2.12148
C          3.69613        2.76919       -3.30958
C          4.17203        1.98594       -4.38389
C          4.16171        0.58855       -4.19740
C          3.72132       -0.00027       -3.00741
Al         4.85675        2.74232       -6.10420
C          6.76246        3.58250       -5.93930
C          7.82435        2.66509       -5.27494
C          9.33338        3.07931       -5.33209
F          9.52677        4.31697       -4.83330
F         10.07775        2.21565       -4.58857
F          9.81495        3.04519       -6.59026
F          7.51329        2.52047       -3.95054
F          7.75228        1.42360       -5.86163
F          7.26063        3.89951       -7.20686
F          6.77279        4.77554       -5.21884
S          3.44617        4.61413       -6.61650
O          3.22383        5.45680       -5.41222
O          3.81020        5.31386       -7.87110
C          1.81246        3.86177       -6.95791
C          3.52163        0.94254        1.12286
C          5.05191        0.97586        1.00473
C          5.70931        1.70626        2.16221
C          7.27824        1.73569        2.18269
C          8.06993        2.34398        0.95600
C          7.74765        3.82880        0.54120
C          8.85048        4.48224       -0.38210
C          8.36799        5.76664       -1.15555
F          7.80098        6.64450       -0.29734
F          9.44554        6.35631       -1.71374
F          7.49509        5.46087       -2.11600
F          9.90379        4.84793        0.39835
F          9.27690        3.58454       -1.30244
F          6.56169        3.83790       -0.12045
F          7.63521        4.59383        1.65835
F          9.39051        2.27469        1.29437
F          7.86228        1.54103       -0.11894
F          7.68869        2.38458        3.30654
F          7.70994        0.43855        2.27182
F          5.27772        3.00948        2.24312
F          5.36423        1.11072        3.36102
C          3.07759       -1.80432       -0.23426
H          0.52234        1.32985       -0.16470
H          0.46203       -0.10714        0.88440
H          0.24421       -0.27059       -0.87495
H          2.88608        2.84134       -1.32018
H          3.66439        3.85761       -3.41297
H          4.51139       -0.06429       -5.00414
H          3.74573       -1.09021       -2.91286
H          4.77459        1.71988       -7.34469
H          1.48518        3.30184       -6.07322
H          1.89434        3.21026       -7.83603
H          1.13774        4.70510       -7.15632
H          3.21980        0.46223        2.06702
H          3.13315        1.97263        1.15941
H          5.35008        1.46906        0.06891
H          5.47596       -0.03913        0.98064
H          2.56034       -2.36447       -1.02630
H          2.75975       -2.22422        0.73140
H          4.15470       -1.99180       -0.34730
