60

N          1.30634       -0.11599       -0.27030
C          2.70945       -0.24441       -0.40149
N          3.34658       -0.70365       -1.42648
N          3.37677        0.21630        0.71081
C          4.83375        0.32287        0.73801
C          5.29777        0.75915        2.12510
C          6.81576        0.92601        2.22763
C          7.22428        1.36983        3.63611
C          8.71825        1.69598        3.89799
S          9.52802        0.02814        4.06716
O          8.87557       -0.70346        5.14157
O          9.61734       -0.61238        2.75180
C         11.39166        0.16009        4.60846
F         11.98811        1.30245        4.23566
F         11.56048       -0.05336        5.91161
F         12.01975       -0.85752        3.95036
C          9.29290        2.60114        2.82045
C          8.83695        3.93816        2.80755
C          9.28833        4.84295        1.85038
C         10.21847        4.47306        0.85590
C         10.66520        3.14077        0.87732
C         10.21168        2.22146        1.82709
Si        10.80795        5.70426       -0.43128
C         11.18283        7.37516        0.40932
C         12.17533        7.28539        1.57456
C         12.52150        8.62862        2.17933
F         11.42768        9.29333        2.64860
F         13.38633        8.50636        3.22721
F         13.12445        9.46408        1.27655
C         12.37633        5.07572       -1.28376
C          9.47920        6.02543       -1.74077
C          8.86861        2.42444        5.35264
O          7.94876        3.22090        5.62868
O          9.90583        2.09938        5.96408
H          0.79936       -0.63814       -0.97852
H          0.96180       -0.34121        0.66144
H          2.69574       -1.10193       -2.10912
H          2.88734        0.93236        1.23990
H          5.19131        1.03092       -0.03178
H          5.25006       -0.65922        0.47275
H          4.95249        0.02149        2.86909
H          4.81036        1.71705        2.38764
H          7.15353        1.67050        1.48849
H          7.31021       -0.02087        1.96413
H          6.89878        0.62691        4.38080
H          6.71750        2.30753        3.91633
H          8.14714        4.25699        3.59114
H          8.90881        5.86879        1.89350
H         11.38684        2.79339        0.13323
H         10.56937        1.19526        1.77736
H         10.23375        7.80677        0.76546
H         11.56431        8.06462       -0.36157
H         13.12986        6.83675        1.26118
H         11.77735        6.65946        2.38661
H         13.18552        4.88553       -0.56446
H         12.73952        5.81003       -2.01776
H         12.18625        4.13602       -1.82159
H          8.54731        6.37667       -1.27534
H          9.24675        5.10167       -2.28951
H          9.80354        6.78306       -2.46971
