46

N          4.67579        0.45003       -1.80107
C          3.81247       -0.71986       -2.03060
C          4.46298       -2.00919       -1.50337
C          4.72565       -2.05944        0.00147
Nb         5.62984       -3.84933        0.86486
C          4.10866       -5.44447        1.04663
C          2.84617       -5.13411        0.49116
C          1.76002       -6.02164        0.53229
C          1.87420       -7.28018        1.13135
C          3.12364       -7.61127        1.68892
C          4.19774       -6.72307        1.64450
C          0.71350       -8.24508        1.17551
C          7.71196       -3.77019       -0.05033
C          8.55171       -2.52393        0.25621
C          9.88336       -2.50157       -0.52875
C         10.72508       -1.26404       -0.30597
C         12.09323       -1.25199       -1.05405
F         12.86843       -2.29225       -0.66306
F         11.91288       -1.35025       -2.39401
F         12.78580       -0.11305       -0.81676
F         10.06646       -0.12210       -0.71933
F         11.03031       -1.08529        1.02747
H          4.27385        1.28338       -2.23181
H          5.58281        0.30021       -2.24842
H          3.55312       -0.86788       -3.10106
H          2.86615       -0.54712       -1.49068
H          5.40968       -2.16181       -2.05525
H          3.81217       -2.84828       -1.80502
H          3.78457       -1.92144        0.57247
H          5.40198       -1.24095        0.31564
H          6.81672       -3.45943        2.12272
H          5.93967       -5.24416       -0.17809
H          5.12940       -4.06478        2.55520
H          2.68036       -4.16492        0.00457
H          0.80319       -5.72590        0.08662
H          3.25099       -8.58784        2.17041
H          5.14530       -7.03531        2.09670
H         -0.18927       -7.79678        0.73556
H          0.46691       -8.54376        2.20771
H          0.92714       -9.17278        0.61866
H          7.54687       -3.84314       -1.14703
H          8.28311       -4.67692        0.21677
H          8.76505       -2.47526        1.33393
H          7.99183       -1.60500        0.01304
H          9.68734       -2.57691       -1.60966
H         10.49225       -3.37588       -0.25052
