46

Cl         7.19407       10.74162        0.02542
N          6.35684        9.31057       -0.64950
C          6.27643        8.29393        0.22315
C          5.60834        7.11039       -0.26948
C          5.44628        5.98375        0.51211
C          5.91998        5.89813        1.85277
C          6.57610        7.05955        2.33514
C          6.75495        8.20617        1.57652
Si         5.72342        4.39570        2.90798
C          7.42590        3.65528        3.38276
C          7.41782        2.41894        4.29213
C          8.81165        1.86736        4.62101
C          8.78153        0.61981        5.50955
C         10.16559        0.05916        5.85023
C         10.11910       -1.19297        6.73126
C         11.49884       -1.75670        7.08461
C         11.43375       -3.00440        7.96900
C          4.81416        4.78403        4.53734
C          4.73184        3.04480        2.00813
H          5.22924        7.13501       -1.29395
H          4.92788        5.12653        0.06874
H          6.96763        7.06842        3.36059
H          7.26642        9.07105        1.99860
H          8.01577        4.46279        3.85217
H          7.94977        3.42506        2.43824
H          6.82559        1.61375        3.82140
H          6.90036        2.65403        5.23905
H          9.40627        2.65687        5.11399
H          9.34028        1.63542        3.67943
H          8.18564       -0.16528        5.01031
H          8.24494        0.85413        6.44641
H         10.76053        0.83959        6.35702
H         10.70585       -0.17250        4.91519
H          9.52766       -1.97472        6.22175
H          9.57259       -0.96222        7.66321
H         12.08986       -0.97529        7.59180
H         12.04348       -1.99132        6.15427
H         10.92228       -2.79020        8.91971
H         12.43599       -3.38780        8.20819
H         10.87676       -3.81347        7.47232
H          5.33693        5.57830        5.09130
H          4.73018        3.90757        5.19882
H          3.79959        5.15086        4.32416
H          5.23792        2.72413        1.08578
H          3.73384        3.41299        1.72938
H          4.59593        2.15808        2.64525
