32

N          2.77227        1.57723        0.64199
C          2.58412        0.18045        0.18237
B          3.09256       -0.14110       -1.34015
S          1.79532        0.81657       -2.44568
O          0.43244        0.28555       -2.28622
O          1.94825        2.28585       -2.38848
C          2.14222        0.50997       -4.35158
C          2.12303       -0.94702       -4.88793
F          0.94736       -1.55610       -4.64059
F          2.30429       -0.95330       -6.24486
F          3.11367       -1.68486       -4.35139
F          1.16684        1.19486       -5.02195
F          3.34682        1.05090       -4.69239
C          4.61847        0.22534       -1.69868
C          5.52966       -0.81938       -1.95152
C          6.89044       -0.58951       -2.18144
C          7.40932        0.71153       -2.18298
C          6.51450        1.76625       -1.94092
C          5.15905        1.52959       -1.70211
C          8.87132        0.97317       -2.45966
H          2.27654        1.72645        1.52306
H          2.34728        2.21424       -0.03602
H          1.53939       -0.17288        0.29178
H          3.19869       -0.47282        0.82877
H          2.82550       -1.30095       -1.61401
H          5.15630       -1.84728       -1.96304
H          7.56165       -1.43484       -2.36617
H          6.89067        2.79457       -1.93492
H          4.49870        2.37734       -1.51632
H          9.47258        0.06264       -2.32345
H          9.27607        1.74983       -1.79305
H          9.03275        1.32138       -3.49355
