7

O          1.00584       -0.01014       -0.03004
C          2.26625        0.07307       -0.05545
O          2.99037        1.06356       -0.35837
C          3.05538       -1.22319        0.34147
H          2.37992       -2.05310        0.59583
H          3.71078       -1.00805        1.20094
H          3.71066       -1.52634       -0.49108
