58

O          3.35532       -0.86012       -0.65946
C          2.40567       -0.03218       -0.00636
C          2.70618        0.54590        1.21075
C          1.86412        1.52483        1.88502
C          2.25244        2.15650        3.04296
C          3.49200        1.88767        3.72019
C          4.30074        0.89416        3.09329
C          3.95125        0.25807        1.91985
Si         3.98477        2.72533        5.27269
C          2.84298        2.30267        6.77188
C          1.35316        2.51961        6.48182
C          0.45043        2.15124        7.64346
C         -1.07952        2.47831        7.49100
C         -1.90379        1.90526        6.27721
C         -2.07341        0.34719        6.05910
C         -2.73575       -0.50023        7.20954
C         -3.25623       -1.91509        6.74701
F         -2.31735       -2.58117        6.05616
F         -3.57034       -2.63377        7.84812
F         -4.36421       -1.80543        5.99237
F         -1.83155       -0.70818        8.19533
F         -3.80702        0.16161        7.72476
F         -2.87556        0.22676        4.95877
F         -0.86685       -0.18798        5.76763
F         -3.15747        2.43513        6.37803
F         -1.34849        2.37426        5.12688
F         -1.73241        2.10122        8.63173
F         -1.19648        3.83751        7.37928
F          0.54735        0.81381        7.95340
F          0.81540        2.83763        8.78840
C          5.72541        2.21427        5.83732
C          3.94459        4.62814        5.14034
C          1.15268        0.07664       -0.80275
C          0.44437       -1.28919       -1.01924
C          0.03768       -1.92622        0.30563
S         -0.48540       -3.67785        0.19770
H          4.22407       -0.60892       -0.30200
H          0.90358        1.79747        1.44100
H          1.56976        2.91248        3.44969
H          5.24636        0.60185        3.56334
H          4.61143       -0.53554        1.55551
H          3.15177        2.90039        7.64573
H          3.01554        1.24482        7.02575
H          1.05212        1.91802        5.61156
H          1.14443        3.57145        6.23188
H          5.78328        1.13026        6.01316
H          5.99704        2.72198        6.77506
H          6.48075        2.47122        5.08112
H          2.96683        4.98492        4.78276
H          4.69349        4.96568        4.40911
H          4.15447        5.12168        6.10260
H          1.35320        0.49821       -1.81147
H          0.45830        0.77087       -0.30605
H          1.13054       -1.96699       -1.54774
H         -0.44309       -1.15737       -1.66399
H         -0.75155       -1.35024        0.80930
H          0.90588       -1.94237        0.98229
H         -1.54295       -3.49018       -0.62856
