35

N          1.75042       -1.37239       -1.12231
C          2.55985       -0.76021       -0.07823
Nb         3.07168        0.34796       -1.95241
C          1.53880        0.59150       -3.53649
C          0.88125        1.80794       -3.82651
C          0.05796        1.95853       -4.94773
C         -0.16409        0.88825       -5.82582
C          0.47111       -0.32471       -5.55980
C          1.30853       -0.46471       -4.43997
C          0.22895       -1.51089       -6.44939
F         -0.33448       -1.17854       -7.64805
F          1.37180       -2.19851       -6.73367
F         -0.62220       -2.42441       -5.87327
C         -0.66229        3.25142       -5.20813
F         -0.12856        4.30934       -4.54327
F         -0.67301        3.58765       -6.53601
F         -1.98455        3.19229       -4.83391
C          4.76511        1.55962       -2.81669
O          5.17164        1.02553       -4.16996
C          6.14076        1.65501       -4.80179
F          5.87448        2.97820       -5.09117
F          7.34609        1.67872       -4.12724
F          6.38008        1.03980       -5.99495
H          0.75012       -1.21840       -1.04970
H          1.97587       -2.33376       -1.35791
H          3.31612       -1.44145        0.32508
H          1.96338       -0.29003        0.70533
H          3.45363        1.62865       -0.78029
H          1.62093        1.01213       -1.15865
H          4.01534       -1.22958       -1.95498
H          1.00800        2.65863       -3.15297
H         -0.80963        1.00241       -6.69512
H          1.79595       -1.43230       -4.28092
H          5.66681        1.53359       -2.18226
H          4.49725        2.61999       -2.96458
