53

F          3.37381       -1.75194        1.48477
C          2.31635       -0.84672        1.42673
S          0.97325       -1.46279        0.62255
O          0.92204       -2.91573        0.72112
O         -0.20801       -0.63650        0.85900
C          1.21223       -1.23317       -1.26041
F          1.31706        0.08143       -1.58449
F          2.34626       -1.84689       -1.68785
F          0.17751       -1.74654       -1.98098
C          2.62190        0.49893        1.78146
C          1.69101        1.58233        1.73833
C          2.06147        2.85803        2.12960
C          3.36279        3.17478        2.60126
C          4.27802        2.10005        2.64312
C          3.93503        0.81295        2.24805
Si         3.78240        4.89121        3.17215
C          2.54162        5.42558        4.53093
C          2.37533        4.37549        5.63673
C          1.34494        4.77210        6.67722
C          0.96608        3.69199        7.75455
C          2.07511        3.07843        8.69130
C          2.89171        3.97925        9.70535
C          2.09522        4.80397       10.78431
C          2.97885        5.31548       11.98582
F          4.07822        5.95522       11.54423
F          2.24548        6.18121       12.71625
F          3.35467        4.30457       12.78829
F          1.54693        5.89619       10.20224
F          1.10769        4.04126       11.32105
F          3.70622        3.11202       10.37757
F          3.67784        4.83226        9.00303
F          1.46751        2.10747        9.42682
F          3.01556        2.48166        7.90743
F         -0.00379        4.20311        8.57076
F          0.43691        2.62502        7.09260
F          1.73435        5.90743        7.36061
F          0.14198        5.07854        6.08079
C          5.53710        4.97270        3.88637
C          3.62711        6.18588        1.79559
H          0.67485        1.39076        1.39888
H          1.30002        3.64376        2.07022
H          5.29991        2.27098        2.99585
H          4.67771        0.01755        2.29842
H          1.57070        5.59984        4.04134
H          2.85620        6.39178        4.95716
H          3.32606        4.20197        6.16099
H          2.07006        3.41102        5.20328
H          5.66930        4.28891        4.73703
H          5.76811        5.99132        4.23172
H          6.28345        4.70044        3.12630
H          2.63502        6.13358        1.32436
H          4.37394        6.00495        1.00936
H          3.76989        7.20896        2.17551
