33

C          0.50572        0.69824       -5.30872
C          2.02517        0.88029       -5.36491
C          2.70317        0.82274       -3.99173
C          4.22628        1.01562       -4.04545
C          4.95229        0.82122       -2.71192
Ga         6.95368        1.04694       -2.86606
C          8.00567        0.49627       -1.23268
C          7.38985        0.03555       -0.05628
C          8.12879       -0.35167        1.07058
C          9.52812       -0.29569        1.06782
C         10.15971        0.17219       -0.09672
C          9.41328        0.55872       -1.21264
C         10.33523       -0.73019        2.26854
Br         7.66968       -0.55332       -4.64760
H          0.05160        0.70804       -6.31128
H          0.03159        1.49858       -4.71945
H          0.24084       -0.25828       -4.83196
H          2.26421        1.84250       -5.84972
H          2.46646        0.10203       -6.01030
H          2.48206       -0.15275       -3.52142
H          2.25639        1.58587       -3.32733
H          4.44172        2.02421       -4.44358
H          4.64781        0.31307       -4.78542
H          4.73309       -0.18329       -2.31015
H          4.58079        1.54808       -1.96534
H          7.41425        2.47219       -3.42609
H          6.29799       -0.03404       -0.01097
H          7.61118       -0.70963        1.96740
H         11.25370        0.22477       -0.12817
H          9.94427        0.90845       -2.10343
H          9.68233       -1.09013        3.07638
H         10.94380        0.09516        2.67180
H         11.03128       -1.54516        2.01304
