17

O          2.86924       -0.54960       -1.75036
Ta         3.52352       -0.18215        0.04137
C          4.54040        1.63463       -0.98379
C          3.51285        2.68105       -1.42277
C          4.02964        3.94364       -2.12202
O          3.33752        4.86661       -2.51028
O          5.38005        3.97459       -2.29389
F          3.19247        0.96326        1.52376
H          2.05273       -1.07031       -1.68858
H          5.25152       -0.62697        0.07784
H          3.85772       -1.80253        0.71431
H          1.91493       -0.99309        0.48317
H          5.10245        1.22755       -1.84225
H          5.25953        2.04743       -0.25390
H          2.91482        3.04886       -0.57044
H          2.77720        2.24283       -2.11971
H          5.68891        3.12257       -1.89222
