53

F          3.62395       -0.84093        1.24406
Ta         5.44918       -0.60443        0.89116
S          6.17760       -2.44770       -0.62291
O          7.59442       -2.53324       -0.96569
O          5.48630       -3.67734       -0.22077
F          5.45285       -2.13982       -2.12819
C          5.74070        1.56054        1.12816
C          4.76863        2.30532        1.83900
C          4.95757        3.65101        2.17036
C          6.13057        4.34129        1.80909
C          7.07391        3.62237        1.03981
C          6.87404        2.28672        0.69660
Si         6.58425        6.02226        2.49270
C          8.23986        5.78320        3.42204
C          8.22860        4.55789        4.34871
C          9.60713        4.19175        4.86507
C          9.68898        2.99877        5.88616
C          9.06512        1.59443        5.53081
C          9.54567        0.76216        4.27119
C         11.05732        0.33396        4.19498
C         11.36546       -0.76851        3.11010
F         10.89136       -0.41331        1.90792
F         12.71004       -0.90080        3.02164
F         10.85128       -1.95659        3.46127
F         11.81775        1.41651        3.89557
F         11.45942       -0.16475        5.39562
F          8.80139       -0.37458        4.29253
F          9.24013        1.46543        3.15462
F          9.24207        0.81191        6.63244
F          7.72630        1.77075        5.35788
F         10.99476        2.79660        6.22195
F          9.02649        3.39670        7.01778
F         10.46348        3.90313        3.83011
F         10.17206        5.25694        5.54390
C          6.87485        7.32166        1.14739
C          5.27046        6.66375        3.69577
H          6.51931       -1.83027        1.59110
H          6.29173       -0.20581        2.37977
H          5.85552        0.08845       -0.67841
H          3.84858        1.81972        2.18109
H          4.18105        4.16200        2.74898
H          7.99572        4.11340        0.70773
H          7.63164        1.78462        0.08744
H          8.50704        6.69410        3.97968
H          9.01684        5.64926        2.65204
H          7.83086        3.68637        3.80982
H          7.57902        4.71945        5.22161
H          7.59485        6.95899        0.40002
H          7.26790        8.25890        1.56930
H          5.93801        7.55193        0.62041
H          5.09451        5.96298        4.52399
H          4.30903        6.82426        3.18702
H          5.58343        7.62567        4.12817
