33

N          1.17821       -4.74386        1.57613
C          2.60537       -5.09909        1.69863
C          3.49450       -4.05234        1.03078
C          4.99416       -4.36943        1.15415
C          5.90619       -3.35280        0.45646
Ta         8.04392       -3.53882        0.66809
C          8.76098       -1.42710        0.18814
C          8.46932       -0.22926        1.14809
C          9.57011        0.12123        2.21076
F         10.05083       -0.94467        2.86615
F         10.60988        0.76495        1.63287
F          9.03958        0.97045        3.13626
F          8.26945        0.95481        0.46778
F          7.29837       -0.47592        1.82583
F         10.08075       -1.23731       -0.21808
F          7.95862       -1.11113       -0.94518
C          8.34956       -5.55495       -0.28335
F          7.88108       -5.60184       -1.60808
F          9.61176       -6.09872       -0.34855
F          7.56942       -6.55198        0.33596
H          0.59665       -5.48295        1.97458
H          0.92702       -4.68985        0.58658
H          2.84759       -6.09490        1.27584
H          2.84403       -5.14721        2.77397
H          3.27845       -3.06345        1.46742
H          3.22976       -3.98233       -0.04028
H          5.18394       -5.37519        0.74584
H          5.24882       -4.42907        2.22751
H          5.70941       -2.32848        0.83795
H          5.70861       -3.31696       -0.63344
H          8.62454       -2.89233        2.20854
H          9.01957       -3.42830       -0.79190
H          8.61285       -4.71030        1.86065
