44

C          4.70304        5.97277        4.09404
O          4.53048        5.26515        2.88620
C          5.39936        4.13596        2.79538
C          5.29675        3.50932        1.41777
O          6.07004        4.24573        0.50390
C          5.92616        3.77478       -0.85006
C          6.89787        4.50176       -1.76211
Al         8.90766        4.33803       -1.35255
C          9.46004        2.41030       -0.84152
C          9.61761        1.41271       -1.99825
C          8.33408        1.15363       -2.79340
C         10.75266        2.44506       -0.01082
C          9.90859        4.83005       -3.08549
C          9.58241        6.14968       -3.78641
S          9.98858        7.59066       -2.72131
C          9.71197        8.92377       -3.92194
H          4.00661        6.82217        4.07862
H          5.73543        6.35772        4.20061
H          4.47675        5.34189        4.97863
H          5.12057        3.39043        3.56946
H          6.44745        4.44438        2.97184
H          4.22776        3.47639        1.11272
H          5.65272        2.45696        1.47730
H          4.85512        3.91114       -1.13204
H          6.12168        2.68102       -0.86771
H          6.61483        5.56939       -1.80562
H          6.73132        4.10885       -2.78332
H          9.37089        5.31066       -0.11184
H          8.65743        2.01904       -0.18094
H          9.99905        0.43562       -1.62287
H         10.39795        1.77691       -2.69269
H          7.53085        0.78699       -2.13455
H          8.48562        0.40258       -3.58553
H          7.96717        2.07555       -3.26718
H         11.59696        2.84579       -0.59952
H         11.06566        1.43838        0.34206
H         10.65049        3.09645        0.86969
H          9.68307        4.02377       -3.81064
H         10.99994        4.77524       -2.91772
H          8.50701        6.21165       -4.02593
H         10.14229        6.30645       -4.72975
H          9.95584        9.87147       -3.42322
H          8.66200        8.96134       -4.24963
H         10.35974        8.81304       -4.80544
