51

C          3.00868        0.02270        4.51070
S          2.18797       -1.19878        3.42348
O          2.53740       -2.51467        4.01341
O          0.75939       -0.80893        3.43181
Ga         3.28603       -0.92496        1.28655
C          2.64232       -2.64270        0.29330
C          2.58308       -2.64666       -1.26449
C          3.96461       -2.51824       -1.99188
C          3.89663       -2.22504       -3.53516
F          3.13317       -3.12935       -4.18064
F          3.41419       -0.99463       -3.78892
F          5.14822       -2.29319       -4.04859
F          4.68201       -1.49804       -1.44082
F          4.66912       -3.67180       -1.84648
F          1.99834       -3.79840       -1.73100
F          1.79603       -1.60016       -1.66895
F          3.41489       -3.75213        0.63935
F          1.34288       -2.95228        0.66981
C          5.22136       -1.05291        1.79868
C          5.76195       -2.18482        2.44191
C          7.10265       -2.23912        2.82511
C          7.94587       -1.14361        2.57943
C          7.43161       -0.00110        1.95116
C          6.08844        0.03096        1.57014
C          9.38526       -1.19853        3.00401
C         10.37506       -2.02671        2.09640
C         10.57368       -1.63706        0.58171
C         11.21100       -0.24880        0.15742
C         12.63764        0.12613        0.70828
C         13.34972        1.28627       -0.08809
F         12.54070        2.35264       -0.22762
F         14.44439        1.66892        0.60318
F         13.74679        0.87681       -1.30554
F         12.53020        0.53626        1.99417
F         13.46355       -0.95103        0.65118
F         11.30453       -0.30302       -1.20497
F         10.35552        0.75168        0.47742
F         11.36751       -2.60738        0.04074
F          9.36911       -1.68632       -0.03931
F         11.61445       -2.02485        2.67457
F          9.93248       -3.31618        2.07520
F          9.93271        0.05963        3.12345
F          9.50805       -1.79927        4.24268
H          2.55348       -0.11684        5.50022
H          2.80995        1.03187        4.13005
H          4.08382       -0.18903        4.54227
H          2.83887        0.43613        0.63968
H          5.11733       -3.03697        2.66625
H          7.49209       -3.12400        3.33022
H          8.07468        0.86026        1.77146
H          5.70676        0.93384        1.08520
