65

C          0.83675       -0.27669        0.52805
Si         2.69485       -0.00077        0.28766
C          3.37868        1.16679        1.58107
C          3.37676        0.81260        2.94592
C          3.89940        1.65746        3.92114
C          4.47023        2.90142        3.58085
C          4.47625        3.26102        2.21814
C          3.93674        2.41587        1.24870
C          5.06104        3.79497        4.61101
S          6.32366        3.20633        5.60625
O          6.73215        1.90185        5.09771
O          7.31803        4.20829        5.94111
C          5.58881        2.78536        7.33742
C          6.50328        1.89152        8.26543
C          6.21782        0.34526        8.25303
F          5.03369        0.06900        8.84307
F          6.21675       -0.17429        7.02000
F          7.18554       -0.27630        8.97412
F          7.81177        2.07285        7.95873
F          6.32863        2.27870        9.56883
F          5.34199        3.94430        7.99202
F          4.39034        2.13524        7.17789
S          4.53151        5.42071        4.72532
O          5.23038        6.17708        5.74684
O          4.29227        6.00501        3.41030
C          2.75643        5.30829        5.40583
F          2.72129        4.74035        6.63095
F          2.23286        6.55453        5.51130
F          1.94962        4.58902        4.58993
C          3.58192       -1.68352        0.48066
C          3.31632       -2.67591       -0.65908
C          3.97892       -4.02449       -0.43044
C          3.77989       -5.11516       -1.54516
C          4.24936       -4.84094       -3.02529
C          5.76318       -4.53272       -3.37312
C          6.85256       -5.59797       -2.97791
C          8.24475       -5.39361       -3.69001
F          8.68140       -4.12946       -3.54864
F          9.13919       -6.22477       -3.11909
F          8.17291       -5.68846       -5.00034
F          7.07376       -5.54322       -1.64506
F          6.41797       -6.84337       -3.30685
F          5.79493       -4.40148       -4.73263
F          6.09901       -3.33861       -2.82742
F          3.88051       -5.92890       -3.75442
F          3.54988       -3.76900       -3.50054
F          4.38103       -6.27128       -1.14568
F          2.43648       -5.35463       -1.64524
F          5.33180       -3.89043       -0.23558
F          3.47577       -4.61510        0.70886
C          3.00553        0.66279       -1.45720
H          0.62488       -0.64595        1.54170
H          0.42514       -1.00171       -0.19031
H          0.29078        0.66888        0.40134
H          2.95147       -0.14384        3.26583
H          3.87389        1.35218        4.96589
H          4.90823        4.21737        1.92811
H          3.97170        2.73882        0.20480
H          3.27895       -2.11989        1.44516
H          4.66129       -1.48394        0.55935
H          3.68906       -2.27285       -1.61067
H          2.24045       -2.86772       -0.79118
H          2.52461        1.64182       -1.59407
H          2.59374       -0.01255       -2.22147
H          4.07910        0.78813       -1.65780
