23

N          1.23750        0.34324        0.31162
Ga         2.81737       -0.40090       -0.48080
S          4.10807        1.55890       -1.29107
O          4.44201        2.47998       -0.16418
O          5.22860        1.23655       -2.22096
C          2.93110        2.53155       -2.32184
C          3.98171       -1.22839        0.93931
C          5.50120       -1.08468        0.79529
C          6.23529       -1.90241        1.86205
S          8.06412       -1.68666        1.93063
H          0.61560        0.76064       -0.38289
H          1.47732        1.09649        0.95984
H          2.49456       -1.20331       -1.81306
H          2.07759        2.82288       -1.69756
H          2.60776        1.91410       -3.16897
H          3.48577        3.41386       -2.66749
H          3.70264       -2.29741        0.96795
H          3.65517       -0.79928        1.90179
H          5.79760       -0.02774        0.87157
H          5.83358       -1.41713       -0.20312
H          6.01326       -2.97434        1.75346
H          5.90517       -1.60120        2.86830
H          8.28759       -1.83493        0.60341
