46

F          1.68678        0.35327       -0.56704
C          2.97156       -0.09463       -0.67731
C          3.07921       -1.60026       -0.62797
C          2.54529       -2.23098        0.66214
Si         2.72896       -4.14102        0.66997
C          2.07204       -4.83844       -0.90024
C          0.75680       -4.50656       -1.34864
C          0.23857       -4.96796       -2.53865
C          0.98407       -5.83012       -3.42644
C          2.31359       -6.16238       -2.96224
C          2.81535       -5.67942       -1.76175
N          0.41213       -6.23512       -4.55983
C          1.18592       -7.09347       -5.40240
C          0.40198       -7.41733       -6.68192
C          1.15321       -8.43655       -7.54626
C          0.64188       -8.66325       -8.95074
C         -0.83346       -9.15739       -9.10135
F         -1.71858       -8.19675       -8.77099
F         -1.09045       -9.53071      -10.37864
F         -1.05731      -10.23196       -8.30601
F          0.74437       -7.52421       -9.71986
F          1.41851       -9.62656       -9.57794
C          4.56987       -4.53880        0.91207
C          1.79541       -4.72254        2.21986
F          3.45820        0.41679       -1.85076
F          3.67867        0.52091        0.32362
H          4.14350       -1.83581       -0.78316
H          2.53990       -1.99633       -1.50181
H          1.47611       -1.99083        0.77492
H          3.05732       -1.81090        1.54318
H          0.12565       -3.85678       -0.72959
H         -0.77111       -4.69314       -2.85274
H          2.94752       -6.81075       -3.56986
H          3.83358       -5.97209       -1.47972
H          1.45867       -8.06144       -4.90676
H          2.16766       -6.64854       -5.70878
H          0.23196       -6.48340       -7.23848
H         -0.58823       -7.79702       -6.39021
H          1.18447       -9.41799       -7.04931
H          2.20026       -8.11698       -7.68040
H          5.17902       -4.16387        0.07740
H          4.73119       -5.62426        0.97689
H          4.94604       -4.08519        1.84099
H          0.71777       -4.53452        2.10684
H          2.14012       -4.20904        3.13088
H          1.92814       -5.80464        2.36115
