50

N          3.93865        5.10688       -4.53542
C          5.11998        5.96897       -4.71427
C          6.18246        5.72159       -3.63953
C          6.82029        4.31935       -3.62779
C          8.03375        4.21014       -2.67997
Ta         8.84715        2.15413       -2.59269
C          9.60918        0.81179       -0.95737
C         10.31900        1.16881        0.21271
C         10.74318        0.23275        1.15847
C         10.47563       -1.14638        1.01098
C          9.74201       -1.52261       -0.13367
C          9.32591       -0.57508       -1.07380
Si        11.17922       -2.43072        2.16463
C         11.53022       -1.65828        3.87872
C         12.20724       -2.61989        4.86077
C         12.53815       -2.01077        6.20560
F         11.43329       -1.56896        6.87175
F         13.14924       -2.91936        7.03127
F         13.38754       -0.94908        6.10788
C          9.99893       -3.89824        2.39867
C         12.82191       -3.10564        1.49188
O          7.17987        1.24800       -2.14079
H          3.21523        5.34869       -5.21384
H          3.53385        5.26581       -3.61033
H          4.87004        7.05166       -4.72135
H          5.54925        5.73733       -5.70397
H          5.74639        5.93119       -2.64402
H          6.97920        6.47292       -3.77644
H          7.12463        4.07303       -4.66114
H          6.04993        3.57786       -3.36234
H          7.74631        4.51631       -1.65653
H          8.82506        4.91948       -2.98671
H          9.09391        1.82657       -4.35848
H          9.92853        3.15547       -1.57612
H         10.53145        1.60255       -2.89060
H         10.56145        2.22344        0.36723
H         11.30249        0.58933        2.03055
H          9.48994       -2.57651       -0.30076
H          8.77663       -0.94432       -1.94949
H         10.57982       -1.29381        4.29873
H         12.16574       -0.77126        3.73200
H         13.15881       -2.99880        4.45799
H         11.57516       -3.49651        5.06948
H          9.05531       -3.57917        2.86379
H         10.44512       -4.68268        3.02854
H          9.75136       -4.35794        1.43114
H         13.55634       -2.29383        1.38703
H         12.66596       -3.53200        0.49038
H         13.26070       -3.89030        2.12678
H          7.11530        0.55903       -1.46342
