48

C          0.58939       -0.69969        0.04455
C          2.11193       -0.56868        0.13453
C          2.82934       -0.94526       -1.16530
C          4.35107       -0.78821       -1.09902
C          5.03466       -1.16128       -2.41820
C          6.57986       -1.03025       -2.43910
C          7.04071        0.40163       -2.19536
C          8.27405        0.68204       -1.56788
C          8.70146        2.00036       -1.38828
C          7.92253        3.08515       -1.81363
C          6.71145        2.81702       -2.44397
C          6.28129        1.49331       -2.63314
C          5.84057        3.93296       -2.94313
F          6.34272        5.16993       -2.66914
F          5.65836        3.88304       -4.30142
F          4.58357        3.89658       -2.40207
C         10.00234        2.30058       -0.69611
F         10.78253        1.21001       -0.51377
F         10.75627        3.21230       -1.39604
F          9.81138        2.86099        0.54144
C          7.10550       -2.08263       -1.33615
O          6.98852       -3.28292       -1.68266
O          7.51515       -1.60380       -0.24670
C          7.04672       -1.48804       -3.84786
C          8.56021       -1.60152       -4.06051
C          8.86187       -2.11856       -5.46466
S         10.63459       -2.41925       -5.82999
H          0.09735       -0.42028        0.98780
H          0.29364       -1.73324       -0.19287
H          0.18293       -0.05261       -0.74822
H          2.49196       -1.20164        0.95360
H          2.37727        0.46734        0.40530
H          2.42989       -0.32401       -1.98850
H          2.58040       -1.98947       -1.42739
H          4.76187       -1.41595       -0.29275
H          4.59521        0.25189       -0.82363
H          4.58707       -0.57822       -3.24622
H          4.82418       -2.21923       -2.64023
H          8.86650       -0.14779       -1.19042
H          8.25722        4.11009       -1.66105
H          5.32713        1.32342       -3.13339
H          6.61444       -0.81205       -4.61004
H          6.60801       -2.48712       -3.99406
H          8.98082       -2.29122       -3.31425
H          9.05260       -0.62469       -3.92033
H          8.45504       -1.44680       -6.23446
H          8.39851       -3.10571       -5.61545
H         11.06154       -1.15814       -5.58244
