36

C          0.98190       -0.27262        0.21749
C          2.46837       -0.17555       -0.14308
C          2.92058        1.20314       -0.63610
In         2.67572        2.90311        0.88559
C          0.52471        3.54010        0.49189
C          0.07667        4.87985        1.07046
C         -1.43043        5.17784        0.94355
C         -1.83850        6.50223        1.58960
N         -3.29251        6.61745        1.69659
C         -3.88827        7.65468        2.38778
N         -3.33739        8.72594        2.85454
N         -5.26915        7.45837        2.58618
C          4.33475        1.12937       -1.21587
H          0.69893       -1.29730        0.50821
H          0.34982        0.01923       -0.63693
H          0.72901        0.39733        1.05184
H          2.68757       -0.94848       -0.91730
H          3.06738       -0.47256        0.73811
H          2.23372        1.50416       -1.45189
H          3.80295        4.23954        0.49233
H          2.82913        2.29912        2.56735
H         -0.11299        2.72928        0.88732
H          0.38596        3.53245       -0.60439
H          0.64392        5.70000        0.59361
H          0.33342        4.93177        2.14478
H         -1.98582        4.35509        1.43224
H         -1.73306        5.16698       -0.11746
H         -1.45772        7.34766        0.99237
H         -1.36901        6.57556        2.59011
H         -3.77060        5.72368        1.77780
H         -2.31982        8.68219        2.75608
H         -5.75907        7.12171        1.76015
H         -5.68778        8.31296        2.94487
H          5.08099        0.88127       -0.44144
H          4.64602        2.08757       -1.65884
H          4.43203        0.34988       -2.00530
