22

F          2.97004        0.20568       -1.51579
C          2.47268       -0.25361       -0.30777
Ga         3.82167       -1.28578        0.89069
C          4.27916       -3.02305       -0.06530
O          5.31306       -2.79255       -1.10649
C          5.74744       -3.85607       -1.76052
F          4.77231       -4.54201       -2.45056
F          6.67425       -3.46767       -2.67624
F          6.35336       -4.80538       -0.96450
C          2.65984       -1.79342        2.49223
O          3.45180       -2.63841        3.42751
C          2.81856       -3.10912        4.48888
F          1.75889       -3.94007        4.19698
F          3.68901       -3.83696        5.23865
F          2.29514       -2.14105        5.31673
F          1.93151        0.88064        0.29315
F          1.35509       -1.00933       -0.66450
H          5.06058       -0.37373        1.24354
H          3.40055       -3.45871       -0.56444
H          4.68107       -3.76377        0.64228
H          1.77600       -2.37537        2.19035
H          2.31859       -0.91143        3.05350
