7

F          1.26829        0.15964       -0.01718
P          2.97228        0.23086       -0.01921
Cl         3.09460       -0.42151       -2.19369
Cl         3.04458        0.89470        2.15365
H          2.93483       -1.12978        0.39209
H          2.82017        1.58352       -0.43111
H          4.40925        0.29167       -0.02105
