29

C          1.10308        1.06487       -2.56209
C          2.54677        0.55366       -2.51730
C          3.41544        1.27558       -1.47477
B          4.93454        0.73819       -1.39623
S          5.65604        0.85824        0.41742
O          7.11693        0.87672        0.47870
O          4.89440        1.75729        1.28978
C          5.18446       -0.92424        1.07618
C          5.21925       -1.04829        2.63324
C          5.21729       -2.51810        3.19280
F          4.19203       -3.23420        2.68428
F          6.36753       -3.16132        2.91958
F          5.07318       -2.48481        4.54050
F          6.33916       -0.45207        3.12258
F          4.12552       -0.43516        3.15958
F          3.92458       -1.24407        0.65548
F          6.04761       -1.83513        0.54430
S          6.15496        1.77287       -2.49333
O          6.15075        3.19591       -2.19859
O          7.40710        1.11982       -2.81925
F          5.28119        1.66845       -3.92241
H          0.49642        0.51574       -3.29913
H          1.07113        2.13180       -2.83174
H          0.61411        0.96099       -1.58075
H          3.00236        0.65971       -3.51401
H          2.54566       -0.52722       -2.29685
H          2.94855        1.15902       -0.48202
H          3.40231        2.36229       -1.66584
H          5.14365       -0.41043       -1.71511
