38

F          0.15093       -2.75633       -0.44334
C          1.00712       -1.71717       -0.25133
O          2.14665       -1.80153       -0.95438
C          2.97819       -3.01596       -0.79345
Nb         2.93125       -3.25071       -3.03924
S          4.44723       -2.30070       -4.69454
O          5.15992       -2.79880       -5.87535
O          2.99695       -1.85540       -4.89269
C          5.41178       -0.61606       -4.34497
C          4.63844        0.74685       -4.25737
C          3.63040        1.02597       -3.08205
F          4.19614        0.77553       -1.88641
F          3.31209        2.34826       -3.12217
F          2.49664        0.33415       -3.19664
F          5.59840        1.72734       -4.14736
F          3.97660        0.94528       -5.42660
F          6.14548       -0.79126       -3.21079
F          6.28070       -0.45940       -5.37775
S          3.21327       -5.50767       -2.08301
O          3.56426       -6.10335       -0.78520
O          1.74290       -5.19866       -2.32906
C          3.62773       -7.00156       -3.30854
C          2.57308       -7.50684       -4.35521
C          2.13256       -6.59605       -5.55936
F          3.19657       -6.12958       -6.23385
F          1.40479       -7.36900       -6.41095
F          1.35693       -5.57729       -5.17821
F          3.11538       -8.63095       -4.93557
F          1.45075       -7.88482       -3.68990
F          4.78806       -6.68898       -3.94571
F          3.86759       -8.07527       -2.51062
F          0.36788       -0.58216       -0.61380
F          1.22645       -1.64942        1.10161
H          2.41476       -3.75781       -0.21412
H          3.89643       -2.73040       -0.27118
H          3.95503       -1.94121       -2.47601
H          1.24642       -2.93046       -3.46154
H          3.53946       -4.42618       -4.19654
