16

S          0.79674        0.07037        0.11199
C          2.64655        0.12550        0.11996
C          3.16030        1.19922       -0.84345
C          4.69116        1.25460       -0.87461
Al         5.57278        2.63037       -2.04936
I          4.80851        2.08621       -4.54230
S          5.02132        4.78583       -1.49897
H          0.65063       -0.89208        1.05310
H          3.02547       -0.86279       -0.17567
H          2.98154        0.34116        1.14421
H          2.74863        2.17714       -0.53988
H          2.77109        0.99730       -1.85569
H          5.09138        0.27012       -1.18065
H          5.07710        1.44093        0.14598
H          7.18767        2.56479       -1.98351
H          3.70250        4.66029       -1.78000
