43

C          5.94165        0.73237        1.23702
S          4.92935       -0.70789        0.79591
C          5.39164       -0.93414       -0.96533
C          4.97557        0.21397       -1.88481
C          5.42164        0.10726       -3.37351
C          4.73408       -1.12215       -4.06119
C          3.19795       -0.97481       -4.15935
C          2.45392       -2.28437       -4.44547
C          5.31343       -1.48986       -5.43926
C          5.07694        1.51973       -4.05802
O          5.37352        2.52759       -3.36042
O          4.61079        1.48810       -5.22767
C          6.97890       -0.02278       -3.38905
C          7.73205        0.59845       -4.57528
C          9.24893        0.43406       -4.44651
C         10.01781        1.10085       -5.58352
N         11.47585        0.92371       -5.41782
H          5.75003        0.93854        2.29821
H          5.66712        1.61523        0.64620
H          7.01209        0.52010        1.10353
H          4.89387       -1.87988       -1.23298
H          6.47592       -1.11993       -0.99921
H          5.39901        1.16703       -1.53753
H          3.88340        0.33306       -1.81913
H          4.93033       -1.99317       -3.40018
H          2.98488       -0.22289       -4.93331
H          2.80653       -0.56074       -3.21756
H          2.72100       -2.71197       -5.42338
H          1.36433       -2.12592       -4.44840
H          2.67415       -3.04929       -3.68177
H          5.20050       -0.63660       -6.12136
H          4.78997       -2.36038       -5.86316
H          6.37596       -1.76309       -5.37615
H          7.26452       -1.08837       -3.29698
H          7.36240        0.47665       -2.48246
H          7.47731        1.66855       -4.62242
H          7.39601        0.16280       -5.52722
H          9.52540       -0.63394       -4.40859
H          9.58265        0.87271       -3.48657
H          9.71044        2.16325       -5.64381
H          9.73181        0.63487       -6.54092
H         11.76004        1.33104       -4.52388
H         11.97470        1.45198       -6.13610
