32

N          1.14244       -1.38065       -5.13443
C          2.61935       -1.37309       -5.09129
C          3.13522       -1.79949       -3.71957
C          4.66355       -1.79138       -3.63712
C          5.19233       -2.18285       -2.25563
C          6.71844       -2.11109       -2.11170
C          7.23729       -0.65149       -2.50027
O          6.76901        0.19872       -1.68959
O          7.98632       -0.50546       -3.48476
C          7.15460       -2.46963       -0.68546
C          8.66392       -2.35787       -0.45283
C          9.10248       -2.60726        0.98922
N          8.48111       -1.64281        1.91834
Cl         7.42049       -3.43257       -3.23431
H          0.81889       -1.01493       -6.03196
H          0.78697       -0.73465       -4.42543
H          3.05893       -0.38804       -5.34434
H          2.97911       -2.08382       -5.85373
H          2.73711       -2.80118       -3.48334
H          2.72369       -1.11351       -2.95514
H          5.04226       -0.78712       -3.88610
H          5.07994       -2.47723       -4.39237
H          4.84689       -3.19772       -1.98910
H          4.79134       -1.48110       -1.50607
H          6.80896       -3.48935       -0.43881
H          6.63040       -1.76737       -0.02186
H          8.99447       -1.34985       -0.75674
H          9.18947       -3.06575       -1.11168
H         10.21080       -2.58011        1.02145
H          8.80148       -3.62353        1.30280
H          8.50099       -0.71078        1.49719
H          9.01502       -1.58565        2.78618
