29

N          2.86372       -2.10148       -1.72452
C          3.67378       -1.07344       -2.10242
O          3.47649       -0.43201       -3.13767
C          4.84679       -0.73207       -1.18277
C          4.90000       -1.37944        0.21277
Ta         5.77379       -3.35051        0.38159
S          4.21252       -5.10937        1.02219
O          3.44154       -3.83372        0.65865
O          3.76592       -6.38353        0.45631
C          3.70017       -5.33187        2.89467
C          3.15729       -4.07296        3.63461
F          1.95657       -3.70768        3.14796
F          2.99607       -4.35397        4.95673
F          4.00586       -3.03385        3.53916
F          2.73830       -6.28601        2.96259
F          4.79947       -5.78184        3.55781
S          8.06230       -2.40414        0.87792
O          8.06645       -1.39102        1.93488
O          9.07998       -3.45172        0.93127
F          8.51543       -1.48438       -0.46922
H          2.12789       -2.36686       -2.36803
H          3.03143       -2.68719       -0.90857
H          4.83164        0.36722       -1.10194
H          5.75979       -0.95120       -1.76208
H          3.92659       -1.31507        0.72389
H          5.62201       -0.81991        0.84164
H          6.33316       -3.74785        2.01215
H          6.85208       -3.47708       -0.99659
H          5.38028       -4.57663       -0.82944
