56

C          3.30824        1.81301       -2.78390
C          4.11675        0.80272       -1.96710
C          3.24919       -0.16301       -1.12801
C          2.36863       -1.15385       -1.90895
S          3.14240       -2.37873       -2.78282
O          4.59197       -2.34983       -2.58271
O          2.45439       -3.67050       -2.78805
C          3.00441       -1.90216       -4.66880
C          3.70300       -2.85693       -5.69023
C          3.46706       -2.53370       -7.21227
F          3.84133       -1.27557       -7.52355
F          4.20882       -3.38254       -7.97034
F          2.17689       -2.69497       -7.56442
F          5.05111       -2.81570       -5.49819
F          3.27295       -4.13597       -5.51431
F          1.68012       -1.82059       -5.00509
F          3.55148       -0.65825       -4.84596
C          0.92066       -1.04851       -1.90157
C          0.27954        0.16193       -1.48729
C         -1.09755        0.31347       -1.44821
C         -1.95205       -0.73699       -1.82373
C         -1.35573       -1.94220       -2.24323
C          0.01962       -2.09536       -2.27900
C         -3.42718       -0.56503       -1.77352
C         -4.10942        0.26549       -2.92923
C         -4.00545       -0.22933       -4.42204
C         -4.69585       -1.57501       -4.90006
C         -6.24261       -1.75309       -4.66243
C         -6.90519       -2.88530       -5.53677
F         -6.23262       -4.04568       -5.42864
F         -8.16696       -3.08156       -5.09441
F         -6.97056       -2.53716       -6.83413
F         -6.46681       -2.07599       -3.36690
F         -6.90269       -0.60168       -4.95677
F         -4.48981       -1.61917       -6.25220
F         -4.05578       -2.63119       -4.34727
F         -4.54022        0.76700       -5.19222
F         -2.69817       -0.35638       -4.75486
F         -5.44564        0.42056       -2.66066
F         -3.55055        1.51133       -2.92840
F         -4.09368       -1.77426       -1.73518
F         -3.81297        0.13332       -0.63085
C          4.09320       -0.84259       -0.02738
H          3.96257        2.43108       -3.41648
H          2.74145        2.49386       -2.12913
H          2.58933        1.30750       -3.44242
H          4.78445        1.34858       -1.27714
H          4.77080        0.21359       -2.62615
H          2.53130        0.46774       -0.58150
H          0.88135        1.02519       -1.20945
H         -1.51642        1.26612       -1.12100
H         -1.98471       -2.78664       -2.52719
H          0.42790       -3.05391       -2.58726
H          4.90052       -1.44637       -0.45767
H          3.46358       -1.50290        0.58590
H          4.53772       -0.07985        0.63279
