34

C          4.07428       -0.57452       -2.95079
C          4.21329       -0.28163       -1.45460
C          4.50648       -1.53984       -0.63098
C          4.60492       -1.21110        0.86741
C          5.07743       -2.37650        1.77405
S          4.94739       -1.63121        3.51171
O          5.45425       -0.27058        3.50535
O          3.60322       -1.86978        4.03017
C          6.12930       -2.60640        4.75231
C          5.40052       -2.83984        6.12685
C          6.32116       -3.40199        7.27567
F          6.90446       -4.56434        6.92483
F          7.28160       -2.52788        7.63023
F          5.55336       -3.63503        8.37027
F          4.89842       -1.66292        6.59248
F          4.39444       -3.73825        5.98171
F          6.50016       -3.81374        4.28174
F          7.21238       -1.84577        5.00220
C          4.13162       -3.58861        1.69383
F          4.28531       -4.29082        0.54624
F          4.32764       -4.46864        2.71543
F          2.80321       -3.24061        1.73131
C          6.64561       -2.69716        1.45528
O          6.84923       -3.36040        0.42542
O          7.41439       -2.15374        2.27575
H          3.86397        0.33895       -3.52707
H          3.25551       -1.28572       -3.13997
H          4.99599       -1.02196       -3.35176
H          3.28859        0.19593       -1.08542
H          5.01992        0.45412       -1.29571
H          5.44362       -2.01161       -0.96067
H          3.70707       -2.27623       -0.80650
H          3.62699       -0.84079        1.21877
H          5.32766       -0.39581        1.01314
