51

O          0.97994        2.49837       -1.38996
C          2.06113        3.19674       -1.07577
O          2.25548        4.33053       -1.49497
C          3.13084        2.48576       -0.26254
C          4.39241        2.51885       -0.87970
C          5.49099        1.85611       -0.34201
C          5.32788        1.14695        0.84669
C          4.09088        1.12833        1.48948
C          2.96638        1.80152        0.97353
C          1.59881        1.75646        1.67899
S          1.91484        1.36932        3.57559
O          2.44321        0.02855        3.77036
O          2.64514        2.51777        4.10586
C          0.26563        1.33684        4.64422
C          0.49720        1.73385        6.17048
C          0.77823        3.20858        6.69146
C         -0.12671        4.37312        6.16066
F         -1.43397        4.06506        6.27318
F          0.11161        5.47513        6.90750
F          0.15236        4.66289        4.88354
F          0.57272        3.14901        8.04598
F          2.06305        3.55966        6.49322
F         -0.66090        1.35556        6.79852
F          1.50863        0.96899        6.65733
F         -0.70394        2.13246        4.13696
F         -0.17093        0.07144        4.69984
C          0.86201        3.09110        1.64168
C         -0.51592        3.15033        1.37644
C         -1.16718        4.38186        1.31072
C         -0.46662        5.57493        1.50895
C          0.89958        5.51723        1.78170
C          1.56171        4.28883        1.84995
C          1.64986        6.80028        2.03489
F          1.20734        7.81794        1.24241
F          1.48990        7.23057        3.32712
F          2.98323        6.68096        1.82944
C         -2.64877        4.45790        1.04124
F         -3.18311        3.27328        0.66428
F         -3.33997        4.86840        2.15212
F         -2.94386        5.36331        0.06249
C          0.66738        0.57924        1.16488
O         -0.02135        0.03130        2.03721
O          0.69350        0.37297       -0.08549
H          0.94393        1.57298       -0.88930
H          4.48134        3.08698       -1.80628
H          6.45708        1.89018       -0.84831
H          6.16440        0.60528        1.29128
H          4.00898        0.56363        2.41370
H         -1.07819        2.23224        1.21051
H         -0.97659        6.53514        1.43604
H          2.63075        4.26212        2.05194
