36

C          2.53407        0.02527        0.58375
C          1.03881        0.00937        0.37703
C          0.27621       -1.12646        0.67823
C         -1.10636       -1.14102        0.49494
C         -1.77110       -0.01494       -0.00754
C         -1.01406        1.12806       -0.30307
C          0.36612        1.13792       -0.11574
C         -3.28430       -0.01971       -0.17774
S         -3.95590        0.45572        1.53845
O         -5.38491        0.66339        1.59128
O         -3.22222       -0.14170        2.62456
F         -3.36030        2.02484        1.56185
C         -3.81913        0.84474       -1.31281
C         -4.64096        1.96761       -1.09941
C         -5.20714        2.69023       -2.15080
C         -4.98719        2.30164       -3.46989
C         -4.18969        1.18571       -3.71228
C         -3.59279        0.46102       -2.66705
C         -2.67277       -0.64127       -3.11194
O         -1.49239       -0.74695       -2.83290
O         -3.23876       -1.39496       -4.11207
C         -3.87319       -1.52356       -0.30067
O         -4.38941       -1.93719        0.75980
O         -3.72019       -2.06720       -1.41106
H          2.91231       -0.97647        0.82935
H          2.81884        0.69999        1.40705
H          3.06117        0.37531       -0.31679
H          0.77436       -2.02077        1.06191
H         -1.67843       -2.03568        0.74232
H         -1.51325        2.01528       -0.69442
H          0.93465        2.03835       -0.36436
H         -4.86501        2.28570       -0.08670
H         -5.83388        3.55465       -1.92309
H         -5.43313        2.85071       -4.30132
H         -4.01144        0.85229       -4.73459
H         -2.54817       -2.04954       -4.32742
