18

O          1.26347       -0.42961        0.03791
C          2.39918        0.28351       -0.04389
O          2.76254        0.71928       -1.13343
C          3.18062        0.50796        1.22659
C          4.42803        1.13389        1.03846
C          5.26318        1.41861        2.11284
C          4.83936        1.07335        3.40263
C          3.60553        0.45163        3.58596
C          2.72090        0.13926        2.52517
B          1.30090       -0.54135        2.90772
H          1.11809       -0.74330        0.98720
H          4.71271        1.38982        0.01654
H          6.22953        1.90194        1.95149
H          5.47705        1.28733        4.26552
H          3.28794        0.18184        4.59645
H          1.30777       -0.92710        4.07298
H          1.04746       -1.54698        2.21595
H          0.38255        0.26661        2.74590
