46

C          6.03714       -4.29552        0.82029
C          5.55438       -2.85336        0.99206
Nb         3.40796       -2.24320        0.86141
C          1.87521       -3.83839        0.99527
C          2.10405       -5.01408        1.75928
C          1.16686       -6.03046        1.89076
C         -0.08809       -5.92516        1.25508
C         -0.35393       -4.77485        0.49146
C          0.60445       -3.77092        0.37046
C         -1.09552       -7.00851        1.39766
C         -1.85061       -7.13402        2.77738
C         -2.69331       -5.92065        3.32623
C         -3.98764       -5.40347        2.57130
C         -5.15787       -6.42095        2.29496
C         -6.53741       -5.73821        1.95089
F         -6.40466       -4.82178        0.97482
F         -7.39197       -6.69413        1.52294
F         -7.08358       -5.14938        3.03064
F         -4.83686       -7.20848        1.24228
F         -5.37689       -7.20208        3.38607
F         -4.49887       -4.41824        3.37457
F         -3.63123       -4.83762        1.39616
F         -3.10494       -6.27782        4.58314
F         -1.88878       -4.83845        3.44626
F         -2.70020       -8.21302        2.74483
F         -0.92181       -7.38266        3.74590
F         -2.08959       -6.93272        0.44016
F         -0.51583       -8.26956        1.25630
C          3.39780       -0.05606        0.70748
N          4.24406       -0.34790        1.86997
H          7.13974       -4.40201        0.85541
H          5.68538       -4.71412       -0.13279
H          5.63491       -4.94618        1.61444
H          5.93864       -2.22797        0.15197
H          5.99738       -2.41670        1.91097
H          2.69544       -1.96610       -0.75431
H          2.44698       -2.11418        2.41183
H          3.57706       -3.62611       -0.24601
H          3.06623       -5.14729        2.26718
H          1.40478       -6.92087        2.47635
H         -1.31215       -4.67593       -0.02178
H          0.36595       -2.90384       -0.25109
H          2.47859        0.48689        0.95587
H          3.94859        0.45141       -0.09311
H          3.84840       -0.12625        2.77794
H          5.22260       -0.06949        1.81171
