19

S          1.04937        2.52768        1.04164
C          2.88108        2.41394        0.89118
C          3.32026        0.96377        1.07447
C          4.84936        0.83393        0.97438
N          5.46312        1.65659        1.99564
S          7.03548        1.65369        2.02381
O          7.66657        0.33446        2.28237
O          7.70136        2.39804        0.92507
C          7.31864        2.63912        3.51307
H          0.94572        3.87396        0.94164
H          3.35742        3.03173        1.66069
H          3.17867        2.78214       -0.10077
H          2.84201        0.32203        0.31409
H          2.99621        0.61046        2.06734
H          5.14769        1.12362       -0.06066
H          5.10346       -0.24476        1.07304
H          6.88409        2.11760        4.37265
H          6.85531        3.62303        3.38020
H          8.40577        2.73470        3.62224
