21

C          1.03851        0.09289        0.18017
S          2.84475        0.19829        0.00963
C          3.36926       -1.13821        1.17879
C          4.87761       -1.28932        1.24755
Ga         5.33207       -2.78580        2.53575
S          7.72531       -2.59968        2.93661
O          8.56265       -3.10720        1.81604
O          8.09434       -1.26179        3.47487
C          8.07228       -3.75630        4.32266
H          0.59936        0.85630       -0.47519
H          0.72118        0.29232        1.21420
H          0.66238       -0.89369       -0.12822
H          2.88467       -2.06665        0.83407
H          2.94914       -0.88382        2.16510
H          5.35289       -0.36483        1.60645
H          5.29858       -1.52611        0.25955
H          4.73448       -2.56045        3.99815
H          5.14992       -4.25605        1.95544
H          7.81232       -4.77424        4.00736
H          7.47923       -3.45001        5.19263
H          9.14769       -3.67133        4.52818
