34

C          1.32309       -1.91100        2.32111
O          2.63853       -1.57174        1.93717
C          2.83504       -1.68528        0.53155
C          4.28593       -1.41919        0.18172
O          5.07768       -2.53656        0.52468
C          6.47493       -2.33633        0.18911
C          7.29350       -3.54682        0.54320
Nb         9.46234       -3.64980        0.34820
S         11.31437       -2.22314       -0.50884
O         12.49714       -2.92581        0.01510
O         11.40845       -1.70265       -1.86942
F         11.29280       -0.77296        0.38713
C          9.92399       -5.78237        0.26741
O          9.36068       -6.27523        1.57569
C          9.77158       -7.45991        2.01334
F         11.12326       -7.54126        2.22664
F          9.16465       -7.73450        3.19693
F          9.47342       -8.49699        1.15998
H          1.26335       -1.80329        3.41215
H          1.07319       -2.95544        2.04977
H          0.57121       -1.24341        1.85309
H          2.18883       -0.95436        0.00134
H          2.55593       -2.70093        0.18741
H          4.62948       -0.50558        0.71037
H          4.35004       -1.21113       -0.90839
H          6.83547       -1.43720        0.72657
H          6.55556       -2.12615       -0.89363
H          6.94535       -4.43049       -0.02674
H          7.18770       -3.79406        1.62439
H         10.21892       -2.77504        1.70543
H          8.92389       -2.77759       -1.05561
H         10.24721       -4.10843       -1.14717
H         11.01398       -5.93347        0.28514
H          9.47314       -6.38540       -0.53277
