38

C          0.37587        0.32910       -3.22212
C          1.82473        0.38596       -3.71601
C          2.80346        0.93930       -2.67510
C          4.26049        0.98808       -3.14365
C          5.22565        1.53947       -2.08753
C          6.68555        1.62952       -2.56559
B          6.98499        2.78612       -3.71462
C          8.59935        2.87492       -4.05936
C          9.24164        1.60178       -4.62094
C         10.70945        1.74443       -5.04782
C         11.32338        0.45578       -5.58811
N         12.73051        0.65704       -6.00084
O          6.47103        4.13683       -3.25839
H         -0.30735       -0.06448       -3.99040
H          0.01594        1.32986       -2.93685
H          0.28551       -0.31543       -2.33351
H          1.88008        1.00565       -4.62701
H          2.15005       -0.62445       -4.01921
H          2.73135        0.32907       -1.75459
H          2.48323        1.95692       -2.38623
H          4.34572        1.60573       -4.05192
H          4.58272       -0.02943       -3.43609
H          5.12869        0.91740       -1.17333
H          4.89046        2.55586       -1.81093
H          7.00727        0.62551       -2.91090
H          7.32063        1.84694       -1.67832
H          6.37332        2.51690       -4.77242
H          9.16127        3.17420       -3.14554
H          8.75192        3.69972       -4.78351
H          8.64870        1.25638       -5.48891
H          9.17101        0.79141       -3.87247
H         11.31598        2.10200       -4.19825
H         10.78089        2.52872       -5.82584
H         10.68296        0.07270       -6.40823
H         11.31575       -0.31302       -4.79721
H         12.76489        1.40802       -6.69469
H         13.08130       -0.17824       -6.47410
H          6.99135        4.40264       -2.48509
