45

N          1.08512       -3.64737       -2.18935
C          2.40755       -3.34211       -1.78931
N          3.04782       -3.85242       -0.79348
N          2.99864       -2.41487       -2.62517
C          4.42822       -2.12071       -2.51769
C          4.79184       -0.97802       -3.46399
C          6.29489       -0.64534       -3.49897
C          7.15892       -1.75068       -4.11706
In         9.26600       -1.21054       -4.33934
S         10.02896       -1.07306       -1.75746
O          9.10816       -0.10388       -1.12364
O         10.27367       -2.34447       -1.05757
C         11.83748       -0.24074       -1.63462
C         11.87224        1.30985       -1.64536
C         13.28329        1.97827       -1.82071
F         14.14662        1.54732       -0.87737
F         13.80925        1.72180       -3.03241
F         13.16634        3.32331       -1.69425
F         11.10147        1.76679       -2.67544
F         11.36665        1.77424       -0.47129
F         12.43598       -0.68679       -0.50169
F         12.53948       -0.71211       -2.71061
S         10.10141       -3.44231       -5.54960
O          9.78228       -4.75767       -4.96819
O          9.63292       -3.17004       -6.92783
C         12.05360       -3.46334       -5.81075
C         12.86844       -4.24190       -4.74904
F         12.53424       -3.83799       -3.50956
F         12.66202       -5.56801       -4.85264
F         14.20645       -4.02320       -4.91082
F         12.33066       -3.98233       -7.03463
F         12.46306       -2.15927       -5.78906
H          0.56998       -4.15611       -1.47726
H          0.55848       -2.83644       -2.50947
H          2.43155       -4.43739       -0.22230
H          2.65144       -2.43789       -3.58061
H          5.02783       -3.02111       -2.73378
H          4.64003       -1.84849       -1.47435
H          4.22087       -0.08119       -3.16977
H          4.46514       -1.23809       -4.48890
H          6.64396       -0.41812       -2.47869
H          6.41426        0.28979       -4.07024
H          6.81528       -2.00877       -5.13136
H          7.14083       -2.67343       -3.52227
H         10.12258        0.09205       -5.09492
