39

C          1.16690       -1.56558       -1.31805
O          2.57143       -1.69318       -1.25167
C          3.03485       -1.78601        0.09452
C          4.55236       -1.91841        0.09394
O          4.96015       -1.99374        1.43852
C          6.39408       -2.12670        1.58908
C          6.76184       -2.10280        3.07473
C          8.23929       -2.31723        3.35727
C          8.98560       -1.12970        3.62730
C          8.89600       -0.36065        5.01272
F          7.61348        0.02327        5.28246
F          9.27911       -1.16529        6.05013
F          9.66049        0.78039        5.12803
F         10.40264       -1.27801        3.50787
F          8.60377       -0.05150        2.74284
C          8.58508       -3.68209        3.93168
C          8.25132       -4.82730        2.92552
C          9.12516       -4.84535        1.66728
C         10.01710       -3.89130        4.45630
H          0.89330       -1.48892       -2.37895
H          0.81232       -0.65930       -0.78841
H          0.65399       -2.44362       -0.87745
H          2.58383       -2.66332        0.59793
H          2.74213       -0.88391        0.66603
H          5.00495       -1.04548       -0.42077
H          4.84917       -2.82454       -0.47516
H          6.89846       -1.29154        1.07008
H          6.72193       -3.07008        1.11214
H          6.16157       -2.88611        3.58111
H          6.39116       -1.14152        3.47192
H          7.91802       -3.89618        4.80821
H          7.19328       -4.73773        2.63245
H          8.33752       -5.79419        3.45710
H          9.15899       -3.83621        1.22975
H          8.73488       -5.54680        0.91358
H         10.15956       -5.14421        1.89425
H         10.76975       -3.72157        3.67497
H         10.12430       -4.92715        4.82034
H         10.25275       -3.21579        5.28625
