50

N          2.01461        1.56910        5.07006
C          1.93885        0.09691        5.03597
C          2.59201       -0.47771        3.77534
C          4.09714       -0.21149        3.63334
B          4.88557       -1.08058        2.49959
S          4.77788       -0.30141        0.69664
O          4.74796        1.17281        0.67652
O          5.68392       -0.97849       -0.24310
C          3.06207       -0.75941       -0.06892
F          2.77614       -2.07969        0.04712
F          2.03069       -0.06891        0.48847
F          3.07770       -0.45563       -1.38844
C          6.47230       -1.15783        2.79735
C          7.03542       -2.36045        3.27133
C          8.37452       -2.46308        3.64245
C          9.21842       -1.34683        3.52674
C          8.69137       -0.13722        3.05066
C          7.34260       -0.05174        2.70662
C         10.65941       -1.45275        3.92490
C         11.60297       -2.33998        3.02364
C         11.72933       -2.03812        1.48189
C         12.35322       -0.67995        0.95624
C         13.81550       -0.29941        1.40108
C         14.49798        0.79360        0.49200
F         13.69536        1.85936        0.31954
F         15.63204        1.20746        1.09945
F         14.82989        0.29571       -0.71244
F         13.78981        0.19278        2.66243
F         14.62330       -1.39223        1.36722
F         12.36589       -0.79842       -0.40549
F         11.52992        0.34314        1.28277
F         12.49300       -3.04422        0.95814
F         10.49878       -2.11195        0.92281
F         12.86872       -2.31495        3.54397
F         11.15931       -3.62878        3.09470
F         11.26448       -0.21945        4.00870
F         10.78500       -2.03299        5.18069
H          1.41273        1.94008        5.80634
H          1.66165        1.94574        4.18749
H          0.89718       -0.28314        5.09740
H          2.47023       -0.28390        5.92599
H          2.04882       -0.09081        2.89677
H          2.41447       -1.56678        3.77528
H          4.57409       -0.47068        4.59773
H          4.28182        0.86770        3.50631
H          4.42108       -2.19704        2.32117
H          6.39463       -3.24146        3.35327
H          8.76560       -3.40710        4.02417
H          9.33521        0.73735        2.95831
H          6.95530        0.90351        2.34482
