33

N          1.51627        0.17217       -0.33646
Ga         3.34033        0.65058       -0.84220
C          4.22000        1.53324        0.79100
C          5.46986        1.07633        1.25516
C          6.07677        1.56565        2.41694
C          5.43846        2.54529        3.18290
C          4.19216        3.01668        2.77066
C          3.59784        2.52270        1.59003
C          2.27565        3.12674        1.20728
O          1.99573        3.65688        0.15895
O          1.33054        3.10313        2.22525
C          4.20792       -1.20082       -1.13245
C          3.48142       -2.31453       -0.66205
C          3.90253       -3.63399       -0.85633
C          5.07685       -3.89819       -1.56970
C          5.80227       -2.82926       -2.09438
C          5.37622       -1.50153       -1.87075
C          6.21342       -0.40169       -2.45296
O          6.59026        0.59577       -1.88280
O          6.59366       -0.60815       -3.76998
H          0.86231        0.82441       -0.77444
H          1.35743        0.28514        0.66771
H          3.36740        1.48246       -2.19101
H          5.99477        0.31789        0.67014
H          7.05403        1.18427        2.72513
H          5.90559        2.94522        4.08557
H          3.69143        3.80150        3.34636
H          1.71566        2.58045        2.95135
H          2.53239       -2.11914       -0.15267
H          3.31116       -4.46273       -0.45660
H          5.42356       -4.92309       -1.71902
H          6.72763       -3.02342       -2.64622
H          6.11619       -1.39800       -4.08110
