13

S          0.99681        0.04525        0.09614
C          2.83700       -0.10183       -0.07728
C          3.36069        1.10086       -0.85740
C          4.90202        1.12147       -0.85245
N          5.32323       -0.13868       -1.37457
Cl         7.12669       -0.11220       -1.36486
H          0.77158       -1.16587        0.65794
H          3.08477       -1.02723       -0.60522
H          3.28272       -0.12968        0.92625
H          2.98300        2.03804       -0.41214
H          2.99650        1.04562       -1.89624
H          5.22492        1.34170        0.21007
H          5.22824        2.03199       -1.43493
