16

O          1.19457       -0.18728       -0.12899
C          2.44012       -0.10149       -0.11791
O          3.21349        0.80003       -0.55174
C          3.26146       -1.29965        0.55642
C          2.74895       -1.48250        1.97227
O          3.48268       -2.58244        2.61972
C          3.19949       -2.90960        3.87032
F          2.24157       -2.13866        4.46775
F          2.76878       -4.20919        3.97114
F          4.31288       -2.83523        4.67081
S          2.95285       -2.84831       -0.46547
O          4.61462       -0.96727        0.53980
H          1.67707       -1.70936        1.96095
H          2.94514       -0.56244        2.54252
H          1.69665       -2.45259       -0.79272
H          4.54741       -0.11967       -0.00591
