35

N          4.86386       -2.27283       -0.12126
C          4.26569       -1.00926        0.08431
N          3.30644       -0.74949        0.91428
N          4.83655       -0.02815       -0.68767
C          4.51281        1.38341       -0.50895
C          5.01446        2.20870       -1.69565
C          6.53321        2.17425       -1.90290
C          6.99414        3.00076       -3.12416
C          8.48179        2.96150       -3.42141
C          8.95923        1.92297       -4.32634
C          9.03687        2.20608       -5.87365
F          7.81434        2.56579       -6.35484
F          9.89815        3.20653       -6.15998
F          9.43502        1.11927       -6.60843
F         10.24780        1.43064       -4.03993
F          8.10082        0.80267       -4.27669
C          9.28516        4.10572       -3.12808
C          9.27942        4.66990       -1.66905
F          9.72686        3.73430       -0.78497
F         10.09585        5.74840       -1.52492
F          8.04421        5.05259       -1.24479
F         10.62004        3.97571       -3.44522
F          8.89177        5.38050       -3.86958
H          4.28961       -3.03916        0.21543
H          5.16977       -2.43792       -1.07856
H          2.94957       -1.61600        1.32727
H          5.78227       -0.21074       -1.01048
H          4.94923        1.76668        0.43309
H          3.42188        1.45418       -0.40135
H          4.69571        3.25278       -1.53920
H          4.50892        1.86129       -2.61333
H          6.88652        1.14186       -2.06138
H          7.04217        2.54106       -0.99682
H          6.67278        4.04481       -2.98576
H          6.42608        2.64145       -4.00087
