17

S          0.99510       -0.91995       -0.63487
C          2.65724       -1.05621       -0.12774
S          2.97979       -1.26238        1.49960
O          1.84318       -1.78750        2.25202
O          4.32557       -1.80021        1.71634
C          3.16190        0.46072        2.29664
F          2.01544        1.18830        2.17016
F          3.45107        0.39950        3.62529
F          4.15355        1.17691        1.70329
C          3.80279       -0.96336       -1.11607
C          3.98114        0.34149       -1.89748
O          5.05636        0.84723       -2.15294
O          2.83632        0.90113       -2.37479
H          0.68306        0.40854       -0.42910
H          3.70055       -1.74893       -1.89234
H          4.74840       -1.16367       -0.59901
H          2.07182        0.35099       -2.05113
