36

C          0.66121       -0.12701       -0.08034
C          2.17045        0.11560        0.02884
C          2.90469       -0.96669        0.82722
C          4.41990       -0.76303        0.95240
C          5.12399       -1.93179        1.66180
C          6.64145       -1.82908        1.84174
Ga         7.29056       -3.54291        2.74318
C          9.27684       -3.71931        3.14269
C         10.21081       -2.66899        3.17918
C         11.55418       -2.87004        3.52926
C         12.03117       -4.14343        3.86583
C         11.11521       -5.20763        3.83274
C          9.78203       -4.99348        3.47696
C         13.47598       -4.37405        4.24165
H          0.16030        0.65071       -0.67676
H          0.18701       -0.14189        0.91343
H          0.45001       -1.09792       -0.55530
H          2.35235        1.10071        0.49292
H          2.60683        0.17601       -0.98342
H          2.71492       -1.94913        0.35714
H          2.46381       -1.03443        1.83863
H          4.62470        0.17837        1.49462
H          4.85708       -0.63297       -0.05483
H          4.88918       -2.85756        1.10355
H          4.65249       -2.07099        2.65263
H          6.89481       -0.94408        2.45273
H          7.13569       -1.69614        0.86281
H          6.51373       -3.66975        4.15993
H          6.89212       -4.79669        1.79730
H          9.88666       -1.65231        2.93159
H         12.24730       -2.02125        3.54470
H         11.45499       -6.21690        4.09288
H          9.10210       -5.85228        3.46261
H         14.01696       -3.42269        4.34682
H         14.00541       -4.97384        3.48262
H         13.56546       -4.91725        5.19614
