32

N          5.05967        4.42270       -3.13332
C          4.30342        3.84677       -2.08185
N          3.03449        3.59278       -2.13937
N          5.06332        3.47813       -1.00283
C          4.46957        3.02304        0.25248
C          5.53202        2.42420        1.18005
C          6.76964        3.30477        1.43290
C          6.50025        4.64056        2.10282
As         6.76184        4.54685        4.17672
C          8.68774        5.51010        4.19882
C          9.94284        4.62406        4.06798
F          9.96254        3.98082        2.87272
F         11.11488        5.33156        4.14728
F          9.98682        3.69003        5.04791
F          8.80978        6.47042        3.19613
F          8.84037        6.20079        5.39441
F          5.02564        3.76175        4.32395
H          4.50104        5.04937       -3.70481
H          5.91976        4.88206       -2.83873
H          2.66179        3.86361       -3.05373
H          5.95353        3.95243       -0.88927
H          3.70127        2.27843        0.00486
H          3.94970        3.85839        0.75277
H          5.86105        1.45538        0.76731
H          5.04949        2.22555        2.14900
H          7.35469        3.42363        0.50071
H          7.44221        2.71846        2.09989
H          5.46020        4.98110        2.02759
H          7.16955        5.44022        1.75976
H          7.40869        3.08208        3.97342
H          6.14433        6.00956        4.29912
H          6.90116        4.42576        5.73556
