43

O          1.93212        1.01451        3.15793
C          1.76121       -0.18864        2.50659
O          0.63674       -0.60963        2.34542
C          3.00501       -0.87848        2.04260
C          4.23483       -0.62043        2.68095
C          5.39808       -1.26601        2.26409
C          5.33066       -2.16190        1.19347
C          4.10461       -2.41149        0.56853
C          2.90017       -1.80057        0.97447
Al         1.24959       -2.42650       -0.04315
C          0.47575       -4.02593        1.08014
C         -0.80919       -4.79129        0.66056
C         -0.83121       -5.39230       -0.78139
F          0.15826       -6.28816       -0.97040
F         -2.01082       -6.03683       -0.98844
F         -0.72514       -4.42896       -1.71551
F         -1.07087       -5.84268        1.51083
F         -1.87576       -3.93435        0.73740
F          1.47923       -5.01213        1.15299
F          0.22135       -3.67832        2.41135
C         -0.17060       -1.16525       -0.75433
C         -0.10177       -0.86227       -2.13039
C         -1.07229       -0.08223       -2.77251
C         -2.16565        0.41766       -2.05761
C         -2.25989        0.12620       -0.69683
C         -1.27544       -0.64444       -0.05609
C         -3.42592        0.63651        0.10621
F         -4.34191        1.31186       -0.65267
F         -4.10866       -0.36912        0.72736
F         -3.03864        1.49808        1.09370
C         -0.94920        0.26055       -4.23005
F         -0.11063       -0.56754       -4.90667
F         -2.15274        0.21884       -4.88256
F         -0.46948        1.53419       -4.42574
H          2.87354        1.25514        3.10015
H          4.29145        0.04629        3.54812
H          6.34317       -1.07811        2.77697
H          6.23465       -2.67267        0.85256
H          4.07052       -3.11420       -0.26914
H          1.89275       -3.11583       -1.37501
H          0.72237       -1.26818       -2.72243
H         -2.93271        1.01035       -2.55394
H         -1.37939       -0.84221        1.01173
