19

S          1.40167       -0.27071       -0.73631
In         3.34715        0.61694        0.57978
S          4.73962       -1.57320        1.14854
O          5.58193       -1.90978       -0.03235
O          5.43565       -1.52084        2.46245
C          3.57795       -2.98058        1.29491
C          4.71991        1.48559       -0.93307
O          4.82467        2.94775       -0.72723
C          5.63190        3.60403       -1.55198
F          5.28962        3.49651       -2.87946
F          5.59468        4.92604       -1.24087
F          6.94626        3.21329       -1.48333
H          0.60829       -0.39158        0.35259
H          2.88829        1.41764        2.06170
H          2.94412       -3.00547        0.40020
H          2.97596       -2.84800        2.20212
H          4.20552       -3.87912        1.36735
H          4.32678        1.30974       -1.94352
H          5.71971        1.04048       -0.84883
