36

O          4.77544        0.29143       -3.39854
C          3.74017       -0.41971       -2.84758
O          2.64432       -0.34586       -3.36636
C          4.01966       -1.25050       -1.63774
C          5.27690       -1.27238       -1.00639
C          5.48455       -2.06922        0.11910
C          4.42914       -2.84467        0.61104
C          3.18142       -2.81098       -0.02112
C          2.93480       -2.01766       -1.15666
Al         1.08265       -2.04660       -1.98724
C          1.01947       -2.85895       -3.93556
C          0.34697       -4.25998       -4.01458
C          0.35785       -5.02693       -5.38937
C         -0.57521       -6.29202       -5.46764
F         -0.34838       -7.14753       -4.45143
F         -1.87880       -5.95587       -5.46334
F         -0.32778       -6.95348       -6.62789
F         -0.03599       -4.20892       -6.40409
F          1.61994       -5.46747       -5.65769
F          0.97527       -5.08811       -3.11854
F         -0.96406       -4.13608       -3.63807
F          0.32547       -2.03974       -4.82345
F          2.29470       -3.03243       -4.49761
C         -0.11620       -0.32447       -1.89674
C          0.09613        0.60916       -0.68486
F          0.01215       -0.08436        0.48191
F          1.32680        1.18627       -0.72567
F         -0.81183        1.62522       -0.60626
F         -0.09424        0.51825       -3.00415
F         -1.45450       -0.74394       -1.78450
H          5.58088        0.11171       -2.88381
H          6.11934       -0.66648       -1.36188
H          6.46023       -2.08195        0.60819
H          4.58344       -3.47292        1.49195
H          2.36239       -3.41866        0.37485
H          0.27085       -3.08004       -1.02783
