20

C          1.29607        0.36808       -0.19457
Al         3.22005        0.64128        0.11280
S          3.89999       -1.39172        1.25143
O          3.08898       -1.46116        2.48423
O          3.98349       -2.59317        0.40648
C          5.76112       -1.21951        1.87277
C          5.96840       -0.57411        3.26632
F          5.48177       -1.35792        4.24710
F          7.29751       -0.38770        3.51593
F          5.37090        0.63203        3.33217
F          6.32342       -2.45583        1.89815
F          6.41579       -0.45930        0.95012
S          4.29904        0.64119       -2.04713
O          5.73916        0.85591       -2.09176
O          3.69472       -0.21896       -3.05705
F          3.65752        2.18438       -2.41454
H          0.75769        0.29875        0.76163
H          1.10069       -0.54940       -0.76570
H          0.88339        1.21385       -0.76416
H          3.88220        1.83941        0.92993
