35

N          2.16895       -0.57852        0.81354
C          2.25096        0.65937       -0.00388
Ga         2.98017        0.41850       -1.89744
C          2.00413       -1.03849       -2.98222
C          2.60575       -1.14303       -4.36623
S          1.73707       -2.37722       -5.44934
C          2.78275       -2.30693       -6.93508
C          5.00343        0.01635       -1.89949
C          5.44254       -1.31550       -1.29179
C          6.95767       -1.56962       -1.45301
C          7.45298       -2.86141       -0.84233
C          8.97324       -3.14282       -1.04359
F          9.27961       -3.22132       -2.36142
F          9.72413       -2.15214       -0.50205
F          9.34993       -4.30636       -0.46435
F          7.24563       -2.88762        0.52314
F          6.79873       -3.95721       -1.36394
H          2.10796       -0.36456        1.81309
H          3.01842       -1.13180        0.69953
H          2.86527        1.45188        0.47434
H          1.23334        1.07801       -0.09358
H          2.79601        1.82749       -2.68148
H          0.94265       -0.74804       -3.04156
H          2.04782       -2.00882       -2.46250
H          3.65991       -1.46287       -4.32466
H          2.56907       -0.17623       -4.89392
H          2.36138       -2.99933       -7.67638
H          3.81370       -2.61837       -6.70994
H          2.79889       -1.29547       -7.36723
H          5.51309        0.84821       -1.38007
H          5.33921        0.06882       -2.95157
H          4.89523       -2.15140       -1.75659
H          5.19651       -1.34451       -0.21753
H          7.52524       -0.74568       -0.99383
H          7.21701       -1.58276       -2.52285
