11

N          1.69091        0.02937       -0.25719
Ta         3.55180       -0.19536        0.52407
O          4.07206        1.72476        0.53905
O          4.64516       -0.75579       -1.04043
H          1.53171        0.76016       -0.95451
H          0.87048       -0.55650       -0.16632
H          2.49447       -1.38652        1.38144
H          4.56061       -1.53548        1.22959
H          3.71275        0.13375        2.30911
H          3.95287        2.17300        1.38558
H          5.35599       -1.37132       -0.82199
