55

C          1.13276       -0.53219       -0.14918
Si         3.02277       -0.37888       -0.19415
C          3.68459       -0.59729       -1.91510
C          2.90160       -0.33519       -3.06478
C          3.42401       -0.36433       -4.35270
C          4.80091       -0.66307       -4.58762
C          5.58360       -0.94477       -3.42861
C          5.04702       -0.90750       -2.15075
N          5.43012       -0.70695       -5.79511
C          4.81110       -0.43037       -6.94015
C          5.78455       -0.49290       -8.15862
C          6.60857       -1.81606       -8.31974
F          7.55713       -1.96031       -7.38028
F          5.81630       -2.90774       -8.30697
F          7.24728       -1.79558       -9.52974
F          5.09798       -0.32523       -9.33389
F          6.70280        0.52125       -8.08238
F          3.69353       -1.28061       -7.31310
F          4.19686        0.87987       -7.06652
C          3.49738        1.36886        0.44074
C          3.07859        2.46321       -0.54714
C          3.40084        3.89722       -0.16958
C          4.90310        4.34830       -0.04389
C          5.91781        4.03357       -1.20798
C          5.69666        4.59919       -2.67053
C          5.63007        6.16051       -2.86483
C          5.82407        6.63337       -4.35600
F          4.99840        5.97834       -5.18656
F          5.53912        7.95442       -4.41981
F          7.09262        6.46189       -4.76447
F          4.42126        6.61618       -2.45630
F          6.60032        6.76685       -2.12873
F          6.75956        4.14555       -3.39119
F          4.56619        4.05479       -3.17938
F          7.13747        4.47264       -0.78333
F          5.98622        2.68409       -1.34837
F          4.93432        5.69686        0.17368
F          5.43532        3.74504        1.06015
F          2.81571        4.75249       -1.08095
F          2.84537        4.21212        1.05638
C          3.77039       -1.61016        1.03734
H          0.64107        0.20214       -0.80314
H          0.74884       -0.38236        0.87081
H          0.82052       -1.53046       -0.48743
H          1.83824       -0.09903       -2.95077
H          2.77559       -0.15464       -5.20259
H          6.63638       -1.18833       -3.58520
H          5.70872       -1.12641       -1.30577
H          4.58913        1.36945        0.57788
H          3.05137        1.55248        1.43121
H          1.98334        2.47105       -0.67255
H          3.49699        2.26570       -1.54462
H          3.48944       -2.64056        0.77713
H          3.42535       -1.40947        2.06263
H          4.86853       -1.55614        1.03657
