24

N          1.06895        0.30169       -0.43286
C          2.43385       -0.05885        0.01558
C          3.01272       -1.19949       -0.82396
N          4.30784       -1.55766       -0.33464
C          4.93991       -2.54764       -0.97705
C          4.45186       -3.29573       -2.11345
C          5.20549       -4.31037       -2.70570
C          6.47981       -4.67868       -2.24854
C          6.97638       -3.95679       -1.13568
C          6.25287       -2.94593       -0.52859
C          7.26612       -5.79744       -2.88344
H          0.63321        0.92738        0.24702
H          0.49754       -0.54768       -0.43756
H          2.48717       -0.36593        1.07810
H          3.08152        0.82581       -0.09399
H          3.00507       -0.87667       -1.89542
H          2.27446       -2.05011       -0.78400
H          3.47145       -3.05924       -2.53105
H          4.78419       -4.84169       -3.56909
H          7.97069       -4.20442       -0.74389
H          6.66520       -2.40117        0.32510
H          6.83455       -6.07867       -3.85708
H          7.28865       -6.71817       -2.26697
H          8.32037       -5.51996       -3.06315
