41

C          3.99637       -0.56999       -0.83751
C          4.24314        0.32638        0.38245
C          3.35471        1.57795        0.37191
In         3.57653        2.94663       -1.36822
C          1.74202        2.37957       -2.69329
C          1.39288        3.05488       -4.04497
C          2.36807        2.72259       -5.22741
C          2.26191        3.67578       -6.47375
F          0.99122        3.78137       -6.91463
F          2.72873        4.90676       -6.20447
F          3.00868        3.16241       -7.48353
F          3.65939        2.78290       -4.80681
F          2.12051        1.46248       -5.68507
F          0.13038        2.70983       -4.48131
F          1.39174        4.41351       -3.86609
F          1.77428        1.00111       -2.96960
F          0.58880        2.56093       -1.92080
C          3.30604        5.18190       -0.73877
C          2.00613        5.82071       -0.16900
C          1.61260        5.38323        1.28438
C          0.14278        5.73171        1.72571
F         -0.13748        7.03924        1.54873
F         -0.76788        5.00113        1.06084
F          0.00842        5.45565        3.04802
F          1.73976        4.03624        1.42227
F          2.43619        5.98970        2.18528
F          2.08835        7.19822       -0.13851
F          0.96517        5.50603       -1.00044
F          4.31161        5.50675        0.19057
F          3.58568        5.96974       -1.86142
C          4.05304       -0.48315        1.67847
H          4.21149       -0.04049       -1.77638
H          2.94210       -0.88724       -0.87791
H          4.62223       -1.47597       -0.80665
H          5.30004        0.65093        0.34902
H          3.54609        2.17654        1.27585
H          2.29258        1.28121        0.41343
H          5.09495        2.98037       -2.25524
H          3.01678       -0.85238        1.75009
H          4.24437        0.13859        2.56570
H          4.72523       -1.35673        1.72093
