30

C          4.85222        2.69073        1.33790
C          4.47095        1.37901        0.64600
C          4.99047        1.27618       -0.79111
C          4.59710       -0.02740       -1.49539
C          5.09877       -0.15038       -2.94168
C          6.62403       -0.23063       -3.06822
C          7.14999       -0.67022       -4.45981
C          8.74418       -0.68631       -4.34808
O          9.29505        0.43691       -4.21175
O          9.27768       -1.83404       -4.37945
N          6.63621       -2.03021       -4.75842
C          6.72785        0.31890       -5.55109
H          4.47390        2.73557        2.37009
H          4.44564        3.55747        0.79434
H          5.94517        2.81320        1.37617
H          3.37223        1.26767        0.64607
H          4.86022        0.52806        1.23112
H          6.08820        1.37682       -0.78710
H          4.61076        2.13285       -1.37783
H          3.49509       -0.11915       -1.47701
H          4.98454       -0.88133       -0.91036
H          4.70832        0.70162       -3.52648
H          4.67947       -1.06438       -3.39339
H          6.99515       -0.97216       -2.33763
H          7.10687        0.72693       -2.82054
H          7.47681       -2.61561       -4.60332
H          6.46495       -2.09289       -5.76491
H          7.10587        1.32176       -5.31396
H          5.63156        0.35945       -5.66885
H          7.16328        0.02046       -6.51847
