48

C          1.52539        7.30458        1.88539
C          2.09149        6.12052        2.67570
C          3.08366        5.26466        1.87368
C          3.63897        4.05041        2.62470
Ga         4.85229        2.88985        1.49253
C          4.64838        0.92554        2.15769
F          3.35244        0.42737        2.04145
F          5.42986       -0.01104        1.49467
F          4.96012        0.73393        3.50348
C          6.83059        3.31802        1.67304
C          7.45231        3.58947        2.90853
C          8.81698        3.86019        3.01870
C          9.62067        3.86806        1.86666
C          9.03435        3.60971        0.61905
C          7.66514        3.34568        0.53879
C         11.08573        4.16195        1.98055
C         12.01161        3.02624        2.56528
C         12.09993        1.62924        1.84024
C         12.73302        1.48499        0.39295
C         14.20401        1.99625        0.15838
C         14.88710        1.42443       -1.14267
F         14.10129        1.58898       -2.22252
F         16.04050        2.09691       -1.34837
F         15.18429        0.11944       -1.01339
F         14.19939        3.34531        0.04016
F         15.00058        1.64222        1.20108
F         12.72867        0.14139        0.13707
F         11.92515        2.08540       -0.51241
F         12.83453        0.82031        2.66142
F         10.85379        1.10741        1.74414
F         13.29180        3.50118        2.66968
F         11.57697        2.74508        3.82682
F         11.63935        4.51883        0.77001
F         11.31072        5.22620        2.84063
H          0.81616        7.89975        2.48094
H          0.99644        6.95886        0.98350
H          2.32973        7.97878        1.55200
H          1.26440        5.47575        3.02033
H          2.58888        6.48726        3.59048
H          3.91381        5.91302        1.53742
H          2.58638        4.92744        0.94610
H          2.80450        3.41789        2.97331
H          4.17321        4.38081        3.53278
H          4.47803        2.90037       -0.06274
H          6.85276        3.58918        3.82354
H          9.25988        4.07426        3.99278
H          9.64740        3.62413       -0.28314
H          7.22860        3.15209       -0.44544
