42

O          3.38192        0.00806       -0.14346
C          3.59111        1.34323        0.04349
O          2.97174        2.15625       -0.61448
C          4.63072        1.68798        1.11289
C          5.26746        0.54385        1.88291
Sb         6.76237        1.24587        3.54799
C          5.10290        1.01522        5.05272
C          5.18772        0.04443        6.05560
C          4.14587       -0.15033        6.97096
C          2.97238        0.61461        6.90030
C          2.88265        1.58852        5.89332
C          3.93459        1.78624        4.99171
C          1.83117        0.38517        7.86292
C          8.38789        1.40894        1.99569
C          8.89062        2.65070        1.59474
C          9.93006        2.74710        0.65990
C         10.49446        1.59731        0.08913
C          9.97767        0.34979        0.47574
C          8.94504        0.26221        1.41558
C         11.63767        1.69243       -0.89414
H          3.98158       -0.43169        0.50628
H          4.13169        2.40112        1.78973
H          5.39834        2.29287        0.60050
H          5.89096       -0.10461        1.24756
H          4.53866       -0.05774        2.44821
H          6.26213        2.94717        3.21870
H          7.18431       -0.49301        3.77522
H          7.90068        1.75957        4.83359
H          6.08668       -0.57934        6.12452
H          4.24143       -0.90896        7.75522
H          1.97612        2.19818        5.81577
H          3.83898        2.56443        4.22659
H          2.15956       -0.19007        8.74022
H          1.00922       -0.17692        7.38974
H          1.40626        1.33545        8.21960
H          8.46347        3.56652        2.01958
H         10.31206        3.73057        0.36621
H         10.39339       -0.56237        0.03396
H          8.56940       -0.72490        1.71059
H         11.79181        2.72832       -1.22734
H         11.45960        1.07246       -1.78599
H         12.58318        1.34544       -0.44588
