54

C          0.60990        0.38268        2.06543
C          2.10886        0.44305        2.38990
B          3.10728       -0.44720        1.46510
S          2.87379       -2.38144        1.82700
O          4.07078       -3.17436        1.51569
O          2.18709       -2.66388        3.09953
C          1.56002       -3.15575        0.55586
C          1.76159       -2.90862       -0.97382
C          1.04566       -3.95539       -1.91307
C          0.91978       -3.52355       -3.42027
F          2.10995       -3.15151       -3.92803
F          0.46688       -4.57769       -4.14211
F          0.04511       -2.51338       -3.57920
F          1.73488       -5.12647       -1.89993
F         -0.22262       -4.19017       -1.47286
F          1.26808       -1.67667       -1.29620
F          3.08384       -2.94078       -1.28316
F          1.63285       -4.50152        0.78334
F          0.30273       -2.74627        0.88862
C          4.66532       -0.15009        1.75982
C          5.27609       -0.39648        3.00804
C          6.60509       -0.06660        3.26279
C          7.37828        0.54756        2.26392
C          6.79976        0.81219        1.01472
C          5.47088        0.45898        0.77815
C          8.80249        0.92069        2.54647
C          9.88296       -0.22733        2.47894
C         10.13343       -1.00238        1.12875
C         10.73161       -0.27427       -0.14799
C         12.10830        0.47751       -0.01254
C         12.80646        0.80305       -1.38877
F         11.96333        1.42955       -2.23004
F         13.85560        1.61985       -1.15092
F         13.27166       -0.30901       -1.98432
F         11.91771        1.65984        0.61980
F         12.98761       -0.27411        0.70081
F         10.90398       -1.26586       -1.07350
F          9.81753        0.59753       -0.63662
F         10.99700       -2.01732        1.42947
F          8.96584       -1.55214        0.71754
F         11.09346        0.27434        2.87636
F          9.52165       -1.18492        3.37891
F          9.24994        1.91988        1.70812
F          8.93595        1.40437        3.83704
H          0.02871        1.10898        2.65780
H          0.19601       -0.61360        2.27182
H          0.42583        0.59949        1.00147
H          2.26174        0.20216        3.45648
H          2.45472        1.48718        2.27567
H          2.86683       -0.38135        0.27102
H          4.69442       -0.86905        3.80319
H          7.04379       -0.27402        4.23953
H          7.38607        1.29597        0.23324
H          5.03613        0.66450       -0.20275
