41

C          3.31505       -1.20911       -4.07560
C          2.89760       -1.13318       -2.60289
C          3.30503        0.11830       -1.77344
C          2.70178        1.42427       -2.37569
S          2.78577        2.93331       -1.29263
O          2.07226        4.01356       -1.95632
O          2.50314        2.65387        0.11139
C          4.61397        3.54659       -1.24129
C          4.89443        4.70553       -0.19371
C          4.87364        4.49757        1.37903
C          5.67025        3.29441        1.99686
F          6.93549        3.25865        1.53244
F          5.72395        3.46698        3.34088
F          5.07804        2.11888        1.75574
F          5.45294        5.63098        1.89424
F          3.60964        4.44413        1.84247
F          6.16479        5.13589       -0.47949
F          4.04063        5.73252       -0.43627
F          5.45842        2.52180       -0.95303
F          4.93818        4.08429       -2.43288
C          3.54991        1.81003       -3.80018
O          4.76863        1.59957       -3.70831
O          2.81543        2.20017       -4.72324
C          1.24142        1.36777       -2.79922
O          0.37633        0.96873       -1.65827
C         -0.91637        0.82871       -1.92978
F         -1.51472        1.95775       -2.42002
F         -1.18326       -0.15697       -2.85460
F         -1.56793        0.48735       -0.79162
C          3.01646       -0.20679       -0.29375
H          3.06331       -2.20183       -4.47965
H          4.39525       -1.04847       -4.18970
H          2.81825       -0.45823       -4.70396
H          3.35351       -1.98820       -2.07647
H          1.80897       -1.28679       -2.50952
H          4.39130        0.24810       -1.90027
H          1.13657        0.61551       -3.58851
H          0.90355        2.33571       -3.17830
H          1.94129       -0.31052       -0.09706
H          3.40474        0.55186        0.39024
H          3.50092       -1.16482       -0.04934
