45

C          1.52256        0.78227       -0.05552
C          2.68022       -0.22545       -0.05459
C          3.21522       -0.48487       -1.47159
Ga         1.98950       -1.48638       -2.74093
C          0.75266       -2.69157       -1.68233
C          1.27691       -3.88730       -1.15328
C          0.52722       -4.72774       -0.32629
C         -0.79936       -4.40618        0.02498
C         -1.33379       -3.21593       -0.50928
C         -0.57630       -2.38611       -1.34103
Si        -1.83216       -5.55923        1.07323
C         -2.58067       -6.91994       -0.03699
C         -3.31888       -6.36670       -1.26099
C         -3.94234       -7.43235       -2.13505
F         -3.02827       -8.32024       -2.62040
F         -4.88233       -8.17316       -1.46826
F         -4.57743       -6.89402       -3.21768
C         -0.80017       -6.43410        2.39456
C         -3.24884       -4.62867        1.91572
I          0.42734        0.29668       -4.06272
C          3.79331        0.23418        0.90466
H          0.69433        0.44227       -0.69108
H          1.85400        1.75444       -0.45597
H          1.13171        0.94757        0.96134
H          2.28357       -1.17877        0.34300
H          4.12565       -1.10901       -1.41326
H          3.52167        0.46345       -1.94540
H          2.75955       -2.28030       -3.88565
H          2.30560       -4.17808       -1.39311
H          0.98832       -5.64532        0.05469
H         -2.36064       -2.92251       -0.26826
H         -1.03275       -1.47540       -1.74124
H         -3.25709       -7.54292        0.57111
H         -1.75692       -7.57352       -0.36507
H         -2.63884       -5.78310       -1.89936
H         -4.13847       -5.69128       -0.97145
H          0.01415       -7.01960        1.94539
H         -1.42389       -7.12179        2.98439
H         -0.34892       -5.70454        3.08127
H         -3.92784       -4.16184        1.18842
H         -2.85550       -3.82868        2.55850
H         -3.84324       -5.31146        2.54030
H          4.23036        1.18830        0.56511
H          4.60863       -0.50471        0.94796
H          3.41657        0.38383        1.93103
