54

C          4.12927       -2.47820       10.46119
C          4.16598       -1.78045        9.09910
C          5.01990       -2.51102        8.05740
C          5.05018       -1.81876        6.69137
C          5.90591       -2.53466        5.63937
C          5.91710       -1.82289        4.27923
B          6.88551       -2.41079        3.10507
S          6.14054       -4.03172        2.33320
O          4.72064       -3.90520        2.02781
O          6.99457       -4.67480        1.34275
F          6.14547       -5.15508        3.61437
C          8.43314       -2.57958        3.51917
C          9.03377       -3.75069        4.02852
C         10.36913       -3.78585        4.42833
C         11.16428       -2.63221        4.34128
C         10.59845       -1.45095        3.83953
C          9.26367       -1.44098        3.43836
C         12.59270       -2.66972        4.79041
C         13.63720       -3.37365        3.84111
C         13.86474       -2.82970        2.37929
C         14.49756       -1.39916        2.11585
C         15.90232       -1.06850        2.74658
C         16.63596        0.15809        2.08115
F         15.82772        1.23142        2.00578
F         17.70326        0.48072        2.84317
F         17.08079       -0.14096        0.84784
F         15.74888       -0.77116        4.05876
F         16.73818       -2.13282        2.62428
F         14.63692       -1.31789        0.75766
F         13.62168       -0.44190        2.50246
F         14.68581       -3.73014        1.76121
F         12.67836       -2.82631        1.72446
F         14.86159       -3.38751        4.45393
F         13.24542       -4.66934        3.68209
F         13.09085       -1.40712        5.03487
F         12.71886       -3.37532        5.97614
H          3.50608       -1.93214       11.18488
H          5.13953       -2.56516       10.88916
H          3.72331       -3.49723       10.37253
H          4.54820       -0.75260        9.22249
H          3.13802       -1.67467        8.71206
H          4.64193       -3.54161        7.93539
H          6.05162       -2.61228        8.43942
H          5.42139       -0.78494        6.81766
H          4.01695       -1.72258        6.31133
H          5.53877       -3.56669        5.51466
H          6.93831       -2.62713        6.02122
H          6.23870       -0.77517        4.43815
H          4.88503       -1.75806        3.89344
H          6.79030       -1.72396        2.09411
H          8.44118       -4.66280        4.11075
H         10.79422       -4.70962        4.82324
H         11.20005       -0.54470        3.76490
H          8.84488       -0.51349        3.03898
