32

C          6.07003        2.01472        0.60086
C          5.45418        0.61262        0.58077
C          5.74270       -0.16381       -0.71284
C          5.12101       -1.57234       -0.75680
Al         5.44671       -2.47466       -2.50426
S          4.51131       -4.78573       -2.40380
O          4.19637       -5.34924       -3.72917
O          5.40095       -5.61333       -1.53359
C          2.75039       -4.89976       -1.52068
C          2.74325       -5.13270        0.00999
F          3.19216       -6.36236        0.31913
F          3.50202       -4.21493        0.64013
F          1.47449       -5.02558        0.50792
F          2.11539       -3.71250       -1.77031
F          2.03305       -5.89792       -2.09763
C          7.31094       -3.19885       -2.87297
C          8.13960       -3.37400       -1.64619
O          9.03185       -2.61371       -1.29473
O          7.84040       -4.44750       -0.85779
H          5.85009        2.54716        1.53861
H          5.68444        2.62800       -0.22827
H          7.16414        1.96681        0.49216
H          4.36128        0.68372        0.71799
H          5.83036        0.02782        1.43696
H          6.83742       -0.23468       -0.84040
H          5.37822        0.43913       -1.56558
H          4.03320       -1.49790       -0.58037
H          5.52409       -2.17784        0.07251
H          4.73475       -1.84029       -3.80535
H          7.81016       -2.48395       -3.54100
H          7.18051       -4.15042       -3.41135
H          7.01875       -4.90274       -1.17936
