44

F          2.68513       -1.39881        0.08850
C          1.91711       -0.23589        0.13235
C          2.18008        0.36858        1.57038
C          1.73646       -0.39589        2.87671
C          2.30435       -1.82813        3.23847
C          3.86080       -2.00303        3.40029
C          4.28355       -3.32183        4.15597
F          3.68769       -4.40702        3.62606
F          5.62064       -3.47362        4.04026
F          3.98595       -3.26066        5.46740
F          4.44677       -2.04135        2.18259
F          4.38035       -0.96786        4.11221
F          1.74533       -2.14006        4.45261
F          1.85914       -2.73283        2.33664
F          2.03872        0.41502        3.94055
F          0.38349       -0.54904        2.85963
F          3.51914        0.61883        1.70249
F          1.51621        1.56066        1.65015
C          2.22271        0.67145       -0.98749
C          3.53703        0.77154       -1.50821
C          3.83054        1.64724       -2.53204
C          2.83758        2.50060       -3.13305
C          1.51370        2.38711       -2.57095
C          1.23083        1.51926       -1.53294
N          3.23007        3.36181       -4.08196
C          2.37260        3.99988       -4.93815
C          2.69192        5.31646       -5.37645
C          1.92570        5.98390       -6.32723
C          0.79689        5.39134       -6.91975
C          0.47964        4.08507       -6.51030
C          1.22865        3.40761       -5.55059
C         -0.04554        6.12881       -7.93162
F          0.58512       -0.63314        0.14241
H          4.32494        0.13546       -1.09986
H          4.84565        1.71470       -2.92805
H          0.72142        3.02715       -2.96066
H          0.21716        1.48095       -1.12827
H          3.57690        5.78855       -4.94458
H          2.21439        6.99675       -6.62750
H         -0.37825        3.57879       -6.96649
H          0.96183        2.38363       -5.28334
H          0.55470        6.85109       -8.50568
H         -0.86617        6.69776       -7.45859
H         -0.51055        5.43599       -8.64963
