30

C          1.60142       -0.35762        1.51277
S          3.12289        0.06207        0.61421
C          3.62360       -1.62585        0.04483
C          4.89455       -1.59580       -0.78012
In         5.54352       -3.64201       -1.38730
C          4.31947       -4.54762       -3.19773
C          2.89199       -4.08249       -3.57570
C          2.78792       -2.74241       -4.37652
F          3.54499       -1.77407       -3.83012
F          3.16202       -2.90520       -5.66261
F          1.49861       -2.31268       -4.38113
F          2.20526       -5.01222       -4.32765
F          2.17867       -3.91864       -2.41217
F          5.05935       -4.48917       -4.41509
F          4.18661       -5.91376       -2.94963
C          7.58399       -3.63723       -2.41735
C          7.82761       -2.44067       -3.24336
O          8.52303       -1.48104       -2.94681
O          7.17383       -2.41015       -4.46656
H          1.17296        0.57635        1.89922
H          1.80984       -1.02800        2.35931
H          0.86729       -0.83386        0.84683
H          2.77515       -2.02813       -0.52947
H          3.74284       -2.24475        0.94818
H          5.72865       -1.16715       -0.20424
H          4.77164       -0.97948       -1.68085
H          5.46407       -4.88611       -0.13722
H          7.56318       -4.56023       -3.01250
H          8.33797       -3.70900       -1.62718
H          6.57757       -3.18182       -4.52008
