30

F          1.24039        0.54844       -0.21105
P          2.82427       -0.05087        0.28710
C          3.17481       -0.72510       -1.49768
C          4.48859       -0.96749       -1.92201
C          4.77012       -1.58295       -3.14911
C          3.73708       -1.98196       -4.00800
C          2.41701       -1.73573       -3.59496
C          2.14549       -1.12089       -2.36922
C          4.02784       -2.66366       -5.32474
C          3.57627        1.72072       -0.09971
C          3.15854        2.45891       -1.37179
C          3.77570        3.85598       -1.42039
S          3.28738        4.90745       -2.86048
H          4.12816       -0.56318        0.71936
H          2.52195        0.39946        1.65801
H          2.18535       -1.34483        0.57639
H          5.31808       -0.68237       -1.26569
H          5.80972       -1.76206       -3.44576
H          1.58878       -2.03214       -4.24867
H          1.11159       -0.94213       -2.06549
H          5.10821       -2.69348       -5.52711
H          3.54291       -2.14531       -6.16738
H          3.65974       -3.70287       -5.33579
H          4.67574        1.61596       -0.06818
H          3.27932        2.31431        0.78224
H          2.06237        2.53133       -1.42056
H          3.47556        1.89339       -2.26432
H          4.87389        3.80857       -1.38804
H          3.44912        4.45265       -0.55449
H          3.63422        4.01702       -3.82008
