14

Cl         1.23627       -0.98983       -0.46064
Ga         2.90284        0.48890       -0.12619
S          4.33021       -0.51056        1.65165
O          4.71126       -1.91814        1.52307
O          5.39900        0.43512        1.99257
F          3.35664       -0.50321        3.04680
C          4.16041        0.44952       -1.68037
C          4.61397       -0.94629       -2.12315
H          2.34633        1.78090        0.56721
H          5.02521        1.07904       -1.41759
H          3.63534        0.96323       -2.50362
H          5.18235       -1.45452       -1.33103
H          5.25709       -0.90773       -3.01997
H          3.75286       -1.58869       -2.35849
