46

C          3.86796       -1.94578        3.99608
C          4.54427       -0.84821        3.15433
Nb         3.22811        0.45016        1.87364
C          1.85558        1.12652        3.48613
C          2.14581        2.11910        4.45096
C          1.34014        2.33465        5.57029
C          0.16496        1.57890        5.79059
C         -0.14896        0.59757        4.82833
C          0.67647        0.38082        3.71862
Si        -0.89728        1.88084        7.29418
C         -1.76616        3.58164        7.15025
C         -2.63718        3.95608        8.35397
C         -3.30247        5.31132        8.25101
F         -4.13035        5.41329        7.17213
F         -4.07239        5.57752        9.35446
F         -2.40481        6.33265        8.15369
C         -2.23645        0.55232        7.48074
C          0.15244        1.90783        8.87387
C          2.85665        1.03023       -0.26047
N          1.55100        0.98885        0.38242
H          4.56714       -2.49201        4.66118
H          3.38446       -2.69927        3.35441
H          3.07732       -1.53368        4.64444
H          5.33494       -1.28700        2.51737
H          5.07478       -0.13417        3.81799
H          3.12549        2.25421        1.74015
H          4.81496        1.17758        1.50894
H          2.66741       -1.08655        0.98840
H          3.03017        2.74939        4.31187
H          1.62955        3.11262        6.28714
H         -1.04752       -0.01717        4.94974
H          0.39154       -0.40981        3.01346
H         -2.37282        3.57298        6.23128
H         -0.98638        4.34412        6.99612
H         -2.04934        3.97741        9.28424
H         -3.44973        3.22880        8.50396
H         -2.92102        0.54286        6.62054
H         -2.83739        0.71435        8.38790
H         -1.78384       -0.44651        7.55697
H          0.94085        2.67178        8.81110
H          0.64866        0.93699        9.01407
H         -0.44747        2.11230        9.77353
H          2.97359        0.26056       -1.03032
H          3.12352        2.02603       -0.61901
H          0.91173        0.26568        0.06972
H          1.09523        1.88504        0.51614
