37

C          0.94384        0.95220       -0.21796
C          2.45707        0.76274       -0.07640
C          3.28047        1.64425       -1.02167
C          4.79548        1.43773       -0.90170
C          5.62632        2.29703       -1.87068
C          7.13534        2.04753       -1.80009
In         8.49092        3.30481       -3.07221
S          7.47908        3.37930       -5.61792
O          7.42821        4.82027       -6.03935
O          8.10482        2.45057       -6.60159
C          5.70252        2.89672       -5.62386
C          8.52176        5.51366       -2.70930
C          7.18163        6.18128       -2.41137
N          6.14347        5.75535       -3.36720
H          0.38452        0.30660        0.47574
H          0.60816        0.71398       -1.23883
H          0.65212        1.99363       -0.01283
H          2.71181       -0.29559       -0.25830
H          2.75735        0.96945        0.96536
H          3.03856        2.70567       -0.83332
H          2.96925        1.44704       -2.06325
H          5.02940        0.37170       -1.07759
H          5.11260        1.64782        0.13630
H          5.40706        3.36334       -1.69043
H          5.26398        2.10283       -2.89404
H          7.35847        0.99247       -2.03148
H          7.49396        2.21559       -0.76786
H         10.09144        2.58853       -3.33509
H          5.17638        3.49864       -4.87295
H          5.62199        1.82407       -5.40876
H          5.34274        3.12101       -6.63753
H          8.96039        5.94878       -3.62139
H          9.22964        5.71167       -1.88834
H          7.30335        7.28962       -2.40298
H          6.84266        5.90619       -1.39530
H          6.53019        5.74032       -4.31968
H          5.36035        6.41100       -3.36552
