30

F          4.49698       -2.13513       -0.92344
C          4.63920       -1.02595       -1.68518
S          2.97672       -0.04503       -1.77851
O          2.74441        0.32154       -0.37122
O          3.29432        1.04028       -2.73619
In         1.06785       -1.40712       -3.06128
S          0.21742       -3.61870       -1.81872
O         -0.51780       -3.45044       -0.55388
O         -0.44335       -4.37804       -2.90682
C          1.67162       -4.78617       -1.32037
F          2.33705       -4.30894       -0.24703
F          1.21012       -6.02041       -1.01956
F          2.55444       -4.90192       -2.34389
C          1.93808       -2.04086       -4.94778
C          2.86127       -1.22054       -5.61776
C          3.38782       -1.59933       -6.85783
C          3.01104       -2.80399       -7.46774
C          2.09472       -3.62491       -6.79303
C          1.56432       -3.25307       -5.55396
C          3.55616       -3.20037       -8.81864
F          5.61217       -0.25967       -1.14413
F          5.04606       -1.41756       -2.91660
H         -0.27215       -0.36799       -2.69882
H          3.19075       -0.27986       -5.16931
H          4.11174       -0.94795       -7.35649
H          1.79360       -4.57583       -7.24279
H          0.85919       -3.92166       -5.05400
H          4.49820       -2.67945       -9.03925
H          2.84630       -2.95156       -9.62439
H          3.74184       -4.28264       -8.87463
