29

C          3.03427        0.76921       -3.09214
C          2.44778        1.65568       -1.98766
C          2.89036        1.26415       -0.57025
In         5.05470        1.66480        0.06109
C          6.21080       -0.29982        0.27523
C          6.06062       -1.40740       -0.77942
C          6.60198       -0.98506       -2.15257
C          6.74498       -2.72296       -0.35231
C          6.06832        2.94568       -1.50532
H          2.66448        1.05573       -4.09075
H          2.76899       -0.28822       -2.92899
H          4.13181        0.83251       -3.10718
H          1.34124        1.62612       -2.08843
H          2.73187        2.70275       -2.19688
H          2.66387        0.19494       -0.40220
H          2.28444        1.81950        0.16560
H          5.05102        2.47759        1.66801
H          5.92290       -0.70438        1.26204
H          7.28195       -0.03239        0.35997
H          4.98330       -1.62941       -0.90611
H          7.67855       -0.75341       -2.08568
H          6.09530       -0.08465       -2.52290
H          6.47795       -1.78465       -2.90261
H          7.83054       -2.56482       -0.23408
H          6.60247       -3.53128       -1.09319
H          6.35707       -3.07510        0.61551
H          6.57264        2.32002       -2.25861
H          6.83017        3.59429       -1.04616
H          5.35141        3.59283       -2.03535
