27

C          0.85288       -0.12235        0.68593
C          2.21597        0.42297        0.24589
C          3.00423        0.98228        1.44582
N          2.25542        2.02745        2.12500
S          2.99422        3.19258        2.81906
O          2.38760        3.55652        4.09986
O          4.46494        3.20310        2.73922
C          2.50315        4.80107        1.85680
C          3.23736        5.22004        0.53596
C          3.25178        4.23198       -0.67658
F          2.01475        3.79481       -0.98335
F          3.73515        4.88626       -1.77092
F          4.05087        3.17780       -0.45925
F          2.62591        6.36365        0.06018
F          4.53268        5.53868        0.80014
F          1.16255        4.75661        1.56507
F          2.69326        5.88579        2.68288
C          3.04068       -0.63992       -0.48926
H          0.30009        0.65221        1.23318
H          0.97799       -0.98600        1.36108
H          0.25079       -0.45244       -0.17552
H          2.03374        1.26208       -0.44532
H          4.00328        1.31418        1.11100
H          3.18591        0.13425        2.14323
H          3.27003       -1.48978        0.17542
H          3.99863       -0.22873       -0.84267
H          2.50055       -1.03920       -1.36166
