37

C          0.53484       -0.45689       -0.04090
C          2.05272       -0.50597       -0.26476
C          2.96399       -1.31031        0.69258
S          2.72457       -0.78520        2.51921
O          1.34397       -1.00771        2.92512
O          3.80446       -1.33187        3.31913
C          2.85217        1.20398        2.70413
C          4.05143        1.78854        3.55882
C          5.58463        1.74228        3.17538
C          6.05596        2.70444        1.99421
F          6.41573        3.91071        2.51589
F          7.14043        2.18229        1.39992
F          5.11426        2.94304        1.07873
F          6.22725        2.21183        4.30271
F          6.01639        0.49494        2.98081
F          3.76594        3.12986        3.71373
F          3.95878        1.20657        4.78467
F          2.66857        1.89528        1.56719
F          1.76300        1.46676        3.49017
C          2.72427       -2.85001        0.67225
C          2.58907       -3.63703       -0.71381
C          3.69902       -3.67887       -1.82559
F          4.85275       -4.18007       -1.38540
F          3.23678       -4.52744       -2.79957
F          3.88290       -2.48859       -2.41445
F          2.39891       -4.94527       -0.35964
F          1.44810       -3.21871       -1.34516
F          3.66798       -3.51238        1.39307
F          1.50644       -3.16445        1.26309
C          4.48498       -0.89848        0.38304
O          4.70402        0.29789        0.68401
O          5.20398       -1.76642       -0.13155
H          0.07568        0.09089       -0.87692
H          0.27259        0.06240        0.88835
H          0.07915       -1.45311        0.00011
H          2.46459        0.50928       -0.26976
H          2.25881       -0.90238       -1.26953
