26

F          4.93136        1.95339       -0.75945
C          3.79932        1.79332       -1.47676
C          2.57520        1.64768       -0.54384
Al         1.97006        3.26232        0.60460
S          3.77834        3.54508        2.21193
O          4.06949        2.32819        2.98540
O          4.89086        4.23187        1.53269
C          3.29090        4.78376        3.65725
C          3.05041        6.26001        3.25427
F          4.18333        6.85050        2.83394
F          2.13091        6.33150        2.26829
F          2.57933        6.98154        4.31069
F          2.15866        4.31988        4.25453
F          4.30548        4.74898        4.56255
C          0.16480        2.83500        1.52387
C         -0.07967        1.57037        2.37569
F          0.77933        1.52376        3.41820
F         -1.34320        1.52036        2.88510
F          0.09732        0.45262        1.63219
F         -0.19686        3.90895        2.33947
F         -0.80352        2.79042        0.51208
F          1.49749        1.36971       -1.40198
F          2.79326        0.48586        0.18203
F          3.65475        2.87549       -2.28377
F          3.97539        0.71085       -2.28391
H          1.84096        4.63608       -0.18791
