38

C          5.57648        0.46050        0.60166
C          5.07848       -0.38045       -0.57632
C          3.59982       -0.17117       -0.94175
Ga         3.17707        1.76078       -1.33583
S          4.61939        2.74749       -3.05714
O          4.14286        4.01242       -3.63709
O          5.96685        2.72098       -2.44774
C          4.85154        1.64043       -4.62558
F          3.68355        1.42597       -5.26079
F          5.70238        2.24569       -5.48460
F          5.38053        0.43026       -4.30198
S          0.89244        1.56527       -2.26184
O          0.85503        1.19541       -3.68458
O          0.10022        0.74578       -1.32217
C         -0.00099        3.35713       -2.30512
C         -1.09537        3.68615       -1.24466
C         -0.57713        3.90095        0.22521
C         -1.68087        3.76399        1.33511
F         -2.10843        2.49769        1.46096
F         -1.15677        4.14890        2.52191
F         -2.74019        4.55764        1.06853
F          0.39767        3.01027        0.52746
F         -0.06278        5.15676        0.33087
F         -1.72864        4.85220       -1.60624
F         -2.03404        2.70215       -1.25941
F          0.98175        4.29961       -2.22623
F         -0.60688        3.46355       -3.51518
C          3.14819       -1.15423       -2.02862
H          6.60449        0.18495        0.87960
H          4.93906        0.32030        1.48891
H          5.58236        1.53236        0.35630
H          5.21959       -1.45389       -0.34043
H          5.71006       -0.18041       -1.45709
H          2.99171       -0.35196       -0.03595
H          3.17934        2.98066       -0.35720
H          3.69195       -0.99923       -2.97092
H          2.07531       -1.07492       -2.24551
H          3.34536       -2.19326       -1.70736
