39

O          0.30724        1.51438       -2.62806
C          1.34096        0.66451       -2.88569
O          1.17584       -0.28314       -3.62538
C          2.65846        1.00523       -2.24728
C          3.79235        0.67641       -3.00832
C          5.07058        0.97811       -2.54513
C          5.22213        1.59465       -1.30085
C          4.09440        1.88641       -0.52928
C          2.78163        1.60858       -0.97263
Al         1.49845        1.94812        0.51736
S          0.86811        4.29301        0.67333
O         -0.00738        4.66276        1.79235
O          2.19978        4.92476        0.58834
C          0.01912        5.08200       -0.91291
C         -1.52205        4.96886       -1.14051
C         -2.47862        5.62197       -0.06790
C         -3.88646        6.03587       -0.64316
F         -4.44555        5.02752       -1.33805
F         -4.70432        6.34451        0.38820
F         -3.80284        7.12095       -1.43817
F         -2.70994        4.74276        0.92879
F         -1.91993        6.75118        0.44486
F         -1.79182        5.57148       -2.35053
F         -1.83708        3.65694       -1.24773
F          0.38540        6.38188       -0.96761
F          0.59711        4.43835       -1.99167
S         -0.40147        0.47067        0.61321
O         -1.69436        0.94096        0.10263
O          0.09540       -0.85773        0.21458
C         -0.74582        0.27260        2.50455
F          0.30353       -0.28979        3.14754
F         -0.99458        1.47299        3.07160
F         -1.82466       -0.51968        2.68688
H          0.64604        2.31858       -2.18978
H          3.64222        0.18089       -3.96860
H          5.94466        0.72988       -3.15023
H          6.21739        1.83794       -0.92320
H          4.24258        2.33971        0.45495
H          2.12908        1.90326        1.97996
