47

C          3.49055       -1.00831        0.88536
C          4.28025        0.26057        1.22445
C          3.45848        1.56534        1.13309
Ta         2.11516        1.94120        2.86484
C          3.53064        2.01242        4.57290
C          4.25076        3.13625        5.03863
C          5.23803        3.04044        6.02227
C          5.54787        1.80570        6.61911
C          4.84170        0.67729        6.18391
C          3.86652        0.77929        5.18203
C          6.59353        1.70640        7.70405
C         -0.10925        1.85110        3.03217
C         -0.82072        0.83389        2.14079
C         -2.31530        0.67306        2.49226
C         -3.04243       -0.35537        1.65348
C         -4.55090       -0.54036        2.00217
F         -4.70499       -0.92797        3.29155
F         -5.23296        0.61899        1.83372
F         -5.13548       -1.47708        1.21946
F         -3.00657       -0.03570        0.31057
F         -2.47698       -1.60730        1.77761
C          4.38795        2.78764        1.03480
H          4.12474       -1.90706        0.94590
H          3.08319       -0.95472       -0.13722
H          2.64403       -1.13544        1.57609
H          5.14845        0.32945        0.53371
H          4.72671        0.15233        2.23020
H          2.84356        1.52390        0.21405
H          1.59363        3.16756        1.65726
H          1.78288        3.53558        3.63598
H          1.65528        0.18226        3.18737
H          4.01859        4.11915        4.61768
H          5.77663        3.93874        6.34426
H          5.06210       -0.29759        6.63310
H          3.34822       -0.13100        4.86577
H          7.52025        2.22998        7.42255
H          6.84797        0.65826        7.91703
H          6.24298        2.15965        8.64606
H         -0.56819        2.84525        2.92040
H         -0.21509        1.55214        4.09806
H         -0.32549       -0.14555        2.23221
H         -0.73866        1.13595        1.08378
H         -2.84222        1.63265        2.37628
H         -2.41665        0.37175        3.54632
H          5.01686        2.89747        1.93510
H          3.81686        3.72015        0.91301
H          5.08768        2.70453        0.17899
