32

F          1.65544        0.41065        0.49071
C          2.80638        0.08463       -0.12965
C          3.25137       -1.34128        0.32757
C          3.82967       -1.41006        1.79476
C          3.91947       -2.85709        2.40524
F          4.56442       -3.70088        1.57613
F          4.61262       -2.79839        3.56752
F          2.70236       -3.35909        2.67588
F          5.08981       -0.90047        1.80714
F          3.05503       -0.67874        2.64092
F          2.18537       -2.18471        0.26109
F          4.22659       -1.80733       -0.50238
S          2.64081        0.43271       -2.06939
O          1.87839        1.67420       -2.07060
O          4.04674        0.45291       -2.48600
B          1.75749       -1.05920       -2.91685
S         -0.15858       -0.97043       -2.69600
O         -0.43018       -0.82444       -1.25730
O         -0.80643       -0.04403       -3.62652
C         -0.71967       -2.62851       -3.15038
S          2.29227       -1.17133       -4.77575
O          1.50369       -2.26217       -5.38134
O          2.32425        0.12034       -5.46333
C          3.99651       -1.77955       -4.73019
F          3.77033        0.97442        0.25872
H          2.15365       -2.06153       -2.38123
H         -0.28439       -3.35370       -2.45365
H         -0.41548       -2.82672       -4.18375
H         -1.81160       -2.59414       -3.04346
H          4.01504       -2.74513       -4.21238
H          4.62025       -1.03663       -4.22299
H          4.27968       -1.89709       -5.78406
