82

C         13.22407        7.95283        4.76439
C         11.88997        7.25052        5.02922
C         11.25531        6.66043        3.76667
C          9.90683        5.97511        4.00601
C          9.27425        5.41979        2.72724
C          7.91998        4.74167        2.97067
C          7.21552        4.22296        1.69497
C          6.69425        5.32385        0.79302
C          6.58385        6.66849        1.18675
C          6.08436        7.65306        0.32632
C          5.65635        7.34075       -0.97582
C          5.74760        5.98444       -1.36539
C          6.25376        5.00859       -0.51177
Si         5.11083        8.65304       -2.19086
C          6.46357        8.85480       -3.52632
C          7.86555        9.03398       -2.92832
C          8.94155        9.21353       -3.98291
C         10.39330        9.52488       -3.46681
C         11.11320        8.54566       -2.46334
C         11.42665        7.04199       -2.85397
C         12.31737        6.78254       -4.12582
C         12.90270        5.32343       -4.22679
F         11.93586        4.40284       -4.11884
F         13.49071        5.19273       -5.43966
F         13.83751        5.10193       -3.28771
F         11.57865        6.99174       -5.24354
F         13.37786        7.63589       -4.13390
F         12.08904        6.52946       -1.78076
F         10.25733        6.38179       -3.00120
F         12.29695        9.13909       -2.13898
F         10.35929        8.47779       -1.33306
F         11.21668        9.68933       -4.54166
F         10.33279       10.72284       -2.80479
F          9.02158        8.12020       -4.80984
F          8.64196       10.29110       -4.79885
C          3.51234        8.17390       -3.08414
C          4.86214       10.32373       -1.33319
C          8.31149        3.27585        0.94050
O          8.67338        2.29321        1.63536
O          8.68906        3.63165       -0.20093
C          6.03753        3.28690        2.08976
C          4.91667        3.92292        2.92232
C          3.76605        2.95906        3.24486
C          4.16971        1.78883        4.14196
N          2.99137        0.97653        4.50023
H         13.65967        8.36762        5.68547
H         13.09962        8.78125        4.05039
H         13.95822        7.25658        4.33120
H         11.18409        7.96304        5.49029
H         12.03621        6.44732        5.77181
H         11.95374        5.93698        3.31080
H         11.12512        7.46273        3.01842
H          9.21486        6.69625        4.48027
H         10.03748        5.15639        4.73665
H          9.95420        4.68635        2.26641
H          9.16613        6.23515        1.99267
H          7.26438        5.42871        3.53683
H          8.08558        3.86252        3.61323
H          6.89705        6.96645        2.18845
H          6.02858        8.68361        0.68918
H          5.43157        5.68220       -2.36926
H          6.34747        3.98127       -0.86068
H          6.20766        9.70603       -4.17692
H          6.44829        7.95479       -4.16131
H          8.12632        8.16057       -2.31404
H          7.91144        9.91279       -2.26745
H          3.61300        7.19535       -3.57506
H          3.24471        8.91221       -3.85455
H          2.67678        8.10265       -2.37332
H          5.78103       10.68307       -0.84840
H          4.08534       10.25561       -0.55812
H          4.54731       11.08682       -2.06023
H          6.50232        2.44128        2.61880
H          5.59509        2.86933        1.16865
H          4.50717        4.79372        2.38448
H          5.32479        4.31343        3.87053
H          3.33068        2.55856        2.31419
H          2.95580        3.51811        3.74951
H          4.71274        2.18868        5.02319
H          4.87520        1.13414        3.60982
H          2.34447        1.54120        5.05547
H          3.27160        0.19624        5.09638
