44

S          1.21536       -0.82223       -0.50412
C          2.84568       -0.16111        0.05599
C          3.31501        0.92316       -0.91242
C          4.70180        1.48570       -0.57062
B          5.18412        2.69924       -1.57634
C          4.29498        4.05418       -1.43347
C          4.29585        5.00922       -2.46772
C          3.59641        6.21797       -2.37457
C          2.85164        6.52544       -1.23237
C          2.82875        5.59267       -0.19245
C          3.53629        4.38767       -0.29452
C          1.99034        5.88965        1.01681
F          2.08156        7.19967        1.41154
F          0.65274        5.66618        0.79424
F          2.32300        5.13679        2.10062
C          3.69000        7.21888       -3.48963
F          4.84067        7.96490       -3.42568
F          3.68926        6.63865       -4.72404
F          2.66121        8.12083       -3.48592
C          6.75969        3.04239       -1.33792
C          7.22208        4.10996       -0.54557
C          8.58421        4.36142       -0.34423
C          9.56546        3.55212       -0.92863
C          9.12661        2.47583       -1.71782
C          7.76583        2.23626       -1.91273
C         11.03648        3.82978       -0.72977
H          0.97758       -1.63729        0.55154
H          3.56817       -0.98873        0.09396
H          2.72769        0.24921        1.06902
H          2.56421        1.73179       -0.92709
H          3.33867        0.51645       -1.93768
H          5.43997        0.66462       -0.62093
H          4.71569        1.81341        0.48943
H          5.06155        2.30751       -2.74746
H          4.86708        4.79107       -3.37275
H          2.30356        7.46301       -1.15801
H          3.50070        3.69025        0.54407
H          6.49569        4.77983       -0.07652
H          8.89183        5.21052        0.27496
H          9.86609        1.82407       -2.19549
H          7.46050        1.39818       -2.54694
H         11.19021        4.71561       -0.09764
H         11.55026        4.01135       -1.68753
H         11.55060        2.98291       -0.24679
