38

N          1.38580       -4.94271       -0.36929
C          2.79656       -4.95607       -0.25260
N          3.48576       -5.86647        0.35411
N          3.40116       -3.83591       -0.76764
C          4.85338       -3.71886       -0.88286
C          5.22852       -2.30772       -1.33615
C          6.71887       -2.12825       -1.68295
C          7.18097       -2.87789       -2.92015
As         9.20051       -2.53830       -3.32726
C          9.41890       -4.49784       -4.20938
C         10.80973       -4.96115       -4.01573
O         11.61229       -5.23779       -4.89468
O         11.21190       -5.03482       -2.70021
C          8.87526       -1.50308       -5.21660
C          7.69023       -0.62410       -5.21380
O          6.72795       -0.68898       -5.96767
O          7.68339        0.33119       -4.21645
H          0.99226       -5.87859       -0.35582
H          1.02257       -4.41290       -1.15946
H          2.86863       -6.58721        0.73805
H          2.87305       -3.29398       -1.44304
H          5.24439       -4.47220       -1.58785
H          5.29158       -3.94976        0.09848
H          4.93946       -1.59458       -0.54537
H          4.63267       -2.04458       -2.22996
H          7.33424       -2.43173       -0.81645
H          6.90136       -1.05100       -1.82286
H          6.60514       -2.59261       -3.81337
H          7.12788       -3.96681       -2.78794
H         10.74432       -2.28487       -3.52559
H          9.08874       -1.06178       -2.59574
H          9.53419       -3.25094       -1.86832
H          9.14889       -4.48038       -5.26936
H          8.70730       -5.09363       -3.62612
H         10.54669       -4.53188       -2.16236
H          8.83909       -2.21646       -6.04488
H          9.81223       -0.93254       -5.22553
H          8.37107        0.05797       -3.55447
