35

S          4.03763       -2.91130        1.42216
C          3.64757       -2.82973       -0.37068
C          3.44605       -1.42060       -0.92743
C          4.72747       -0.57998       -1.07849
C          5.75474       -1.08464       -2.08549
S          5.47292       -0.84886       -3.74436
O          4.26713       -0.03639       -3.89075
O          6.65505       -0.56010       -4.53967
C          4.92128       -2.55217       -4.47909
C          4.08869       -2.55410       -5.81010
C          4.66472       -1.90177       -7.12428
C          5.99331       -2.47111       -7.74104
F          5.90001       -3.80177       -7.95113
F          6.18126       -1.87432       -8.94632
F          7.05867       -2.22041       -6.98042
F          3.70088       -2.09244       -8.08250
F          4.82353       -0.57223       -6.94899
F          3.82127       -3.86798       -6.11784
F          2.89641       -1.94216       -5.58600
F          6.00489       -3.34735       -4.67254
F          4.10899       -3.17263       -3.56634
S          7.25332       -1.67305       -1.54439
O          7.13156       -2.11680       -0.15465
O          7.95058       -2.49531       -2.51767
C          8.41237       -0.17690       -1.34244
F          7.84738        0.76088       -0.53548
F          9.57934       -0.56162       -0.76652
F          8.70506        0.41160       -2.51636
H          5.34861       -2.58846        1.29398
H          2.72547       -3.41871       -0.47620
H          4.44015       -3.36165       -0.91219
H          2.74927       -0.87369       -0.27129
H          2.95966       -1.50107       -1.91209
H          5.23140       -0.51292       -0.10328
H          4.43316        0.44440       -1.34950
