24

S          1.57319        0.54536        0.35007
C          3.01609        1.32556       -0.25637
C          3.48526        1.04639       -1.55634
C          2.53662        0.96690       -2.78493
C          1.66192        2.24830       -3.04620
F          2.41560        3.37004       -3.08315
F          1.04905        2.13949       -4.26354
F          0.68825        2.42211       -2.13616
F          3.27907        0.81942       -3.93458
F          1.66879       -0.08379       -2.73128
F          4.53781        1.87712       -1.93846
F          4.22418       -0.37154       -1.74985
C          3.99676        1.87441        0.75521
C          5.05882        0.87847        1.28767
C          5.91344        1.52954        2.36930
S          7.40587        0.59729        2.90458
H          1.97671       -0.74771        0.61358
H          3.41237        2.25688        1.60936
H          4.53502        2.73943        0.32843
H          5.68912        0.53328        0.45594
H          4.55481       -0.01463        1.69425
H          5.31491        1.76821        3.26075
H          6.33688        2.47803        2.00135
H          6.77595       -0.56615        3.19335
