39

C          1.42780        1.96718        1.15732
C          2.90098        1.65174        0.88179
C          3.35018        2.03340       -0.53240
C          4.82292        1.72493       -0.82513
C          5.25746        2.08970       -2.25440
C          6.73520        1.80905       -2.54757
In         7.52106        2.45438       -4.53796
S          5.89042        4.57704       -5.21412
O          5.40288        5.27199       -3.99380
O          6.47397        5.43144       -6.27522
C          4.21925        4.02681       -6.03598
F          3.53471        3.16259       -5.23710
F          3.41630        5.09096       -6.27431
F          4.43288        3.39522       -7.21987
C          9.37919        3.70081       -4.41081
C          9.26442        5.14198       -3.88658
C          8.58645        5.23708       -2.51806
S          8.62259        6.91040       -1.76524
H          1.12820        1.67086        2.17387
H          0.77103        1.43991        0.44828
H          1.22687        3.04400        1.04977
H          3.08259        0.57458        1.04170
H          3.53347        2.17700        1.61808
H          3.16770        3.11012       -0.69503
H          2.71480        1.50782       -1.26779
H          5.01702        0.65162       -0.64349
H          5.45907        2.27326       -0.10691
H          5.03594        3.15552       -2.42711
H          4.62097        1.53796       -2.96792
H          6.94579        0.72955       -2.45157
H          7.36742        2.31845       -1.80086
H          7.35746        1.36569       -5.91585
H          9.82246        3.71335       -5.41759
H         10.06949        3.12430       -3.76876
H          8.70212        5.76494       -4.59868
H         10.26974        5.60047       -3.80418
H          9.02273        4.52547       -1.80155
H          7.51044        5.02018       -2.59870
H          9.96947        7.00568       -1.65418
