57

O          2.14589        0.33495       -2.57652
C          2.56192        0.97343       -3.69650
O          2.03658        0.72986       -4.76877
C          3.69781        1.96395       -3.50432
C          5.07634        1.28718       -3.22566
B          5.89104        1.88230       -1.93208
S          5.07184        0.97177       -0.41690
O          3.60230        1.19253       -0.39435
O          5.51886       -0.41224       -0.21335
C          5.63155        1.77779        1.26814
C          5.45606        3.30823        1.55988
C          4.00923        3.91651        1.47106
C          3.85630        5.31804        2.17719
F          4.82060        6.17615        1.78869
F          2.65978        5.84652        1.83720
F          3.89146        5.20790        3.51875
F          3.67582        4.09653        0.17122
F          3.10776        3.08937        2.05822
F          5.90452        3.52406        2.84364
F          6.26122        4.01005        0.72199
F          4.98316        1.08439        2.24230
F          6.96859        1.53809        1.39692
C          7.48151        1.64736       -1.96042
C          8.32965        2.76026       -2.14043
C          9.71280        2.63428       -2.25514
C         10.30293        1.36364       -2.17492
C          9.48704        0.23666       -1.99795
C          8.10324        0.38294       -1.90274
C         11.79281        1.22364       -2.28770
C         12.66418        1.74817       -1.08100
C         12.41692        1.18832        0.37159
C         12.67249       -0.33471        0.72399
C         14.10454       -0.93631        0.46532
C         14.38423       -2.28296        1.23581
F         13.39513       -3.17304        1.03760
F         15.53524       -2.81142        0.76708
F         14.52847       -2.07502        2.55612
F         14.25068       -1.19720       -0.85568
F         15.06500       -0.05682        0.85346
F         12.42706       -0.43494        2.06436
F         11.76537       -1.09929        0.07164
F         13.21633        1.92005        1.20321
F         11.12720        1.42774        0.71269
F         13.98599        1.55146       -1.37055
F         12.46393        3.09413       -0.97813
F         12.17245       -0.08148       -2.49723
F         12.27383        1.94880       -3.36677
H          2.66649        0.64400       -1.78669
H          3.43758        2.63202       -2.66948
H          3.74653        2.57370       -4.41492
H          5.72586        1.44688       -4.10010
H          4.96102        0.19185       -3.16601
H          5.60781        3.04807       -1.71808
H          7.88392        3.75628       -2.19353
H         10.33339        3.51787       -2.40798
H          9.93601       -0.75455       -1.93859
H          7.48901       -0.50660       -1.75477
