22

N          1.24500       -0.41424        0.31282
Al         3.01511       -0.53683        0.70064
S          3.67879        1.84651        0.67032
O          3.38313        2.51052       -0.61494
O          3.11858        2.45773        1.89537
C          5.60619        2.22647        0.81651
C          6.29514        1.83071        2.14437
F          5.84180        2.56265        3.17959
F          6.08566        0.52409        2.41244
F          7.64684        2.02261        2.07357
F          6.24322        1.56390       -0.19335
F          5.78408        3.56498        0.63197
C          4.06553       -1.57736       -0.75260
C          3.87537       -1.29582       -2.25754
F          4.29448       -0.05158       -2.57244
F          4.55335       -2.16771       -3.05821
F          2.56026       -1.39168       -2.59523
F          5.44327       -1.51387       -0.53517
F          3.72630       -2.93380       -0.59443
H          0.62452       -0.01383        1.01279
H          0.94841       -0.07161       -0.59804
H          3.44070       -1.05811        2.14976
