15

O          1.07098        0.09329        0.18407
C          2.27726        0.04432       -0.09983
O          3.01206       -0.89703       -0.51757
C          3.17765        1.36286        0.13185
S          2.91599        2.66021       -1.27862
O          1.51995        3.03796       -1.44138
O          3.94785        3.68714       -1.18304
C          3.33739        1.75192       -2.91965
F          4.57956        1.22992       -2.92603
F          2.45561        0.77524       -3.19023
F          3.26843        2.67073       -3.91694
S          2.63782        2.27609        1.60689
O          4.49473        0.99665        0.10436
H          1.41878        1.66079        1.48937
H          4.36058        0.03599       -0.21570
