32

F          4.04134        0.54616        0.71414
Ta         3.24206       -0.14081       -0.86559
S          1.30862       -1.70750       -1.19160
O          1.37216       -2.65343       -2.32431
O          1.13210       -2.26996        0.16797
C         -0.46633       -0.90474       -1.47701
C         -0.88137       -0.68217       -2.96021
F          0.04705        0.02679       -3.63162
F         -1.08890       -1.84506       -3.60298
F         -2.05220        0.02374       -3.02013
F         -1.37601       -1.76150       -0.92949
F         -0.58045        0.28972       -0.83372
C          4.68061        0.80471       -2.23088
C          5.92742        0.15106       -2.32391
C          6.99108        0.69562       -3.05700
C          6.84689        1.92519       -3.70445
C          5.62197        2.59201       -3.61828
C          4.55352        2.03282       -2.90398
C          5.45229        3.93882       -4.27128
F          6.42989        4.21164       -5.18373
F          4.26317        4.05333       -4.92344
F          5.48753        4.95764       -3.35750
C          8.28885       -0.05643       -3.18819
F          8.54208       -0.85464       -2.11688
F          8.30179       -0.87155       -4.28843
F          9.36306        0.77701       -3.32279
H          1.76159        0.51863       -0.23018
H          2.28995        0.68678       -2.10468
H          3.64026       -1.87460       -0.98099
H          6.08592       -0.80481       -1.81527
H          7.67419        2.35614       -4.26586
H          3.59659        2.55778       -2.87469
