55

N          4.90369        0.97659        2.14122
C          5.79831        1.12249        0.97679
C          5.09336        0.74242       -0.32207
C          6.00961        0.87694       -1.56185
C          5.38269        0.54991       -2.90309
C          4.56243        1.50119       -3.51650
C          4.33233        2.81458       -2.92249
C          3.57457        3.79676       -3.51653
C          2.92466        3.59396       -4.76469
C          3.08368        2.31210       -5.35652
C          3.84409        1.32475       -4.77073
C          2.10868        4.64203       -5.37737
C          2.83166        5.92455       -5.93594
C          3.92766        5.76848       -7.05824
C          3.56161        5.22997       -8.50197
C          2.46007        5.98605       -9.33647
C          2.48585        5.66019      -10.87969
F          2.49490        4.33371      -11.10686
F          1.37276        6.17925      -11.44656
F          3.55177        6.21246      -11.48855
F          1.23046        5.64687       -8.88617
F          2.61950        7.33255       -9.22996
F          4.72673        5.31644       -9.22425
F          3.21879        3.92463       -8.42906
F          4.46807        7.01527       -7.24792
F          4.91900        4.95705       -6.61580
F          1.91921        6.83758       -6.43034
F          3.48090        6.53825       -4.90133
F          1.34104        4.17404       -6.43431
F          1.18772        5.22464       -4.45871
C          5.76378       -0.82470       -3.44845
C          4.84987       -1.99042       -2.95894
C          3.38253       -1.89844       -3.38572
C          6.04134       -0.94864       -4.96450
H          5.42148        1.12704        3.00905
H          4.55502        0.01637        2.17936
H          6.73004        0.52456        1.06488
H          6.10977        2.17968        0.92581
H          4.19671        1.36808       -0.44906
H          4.73654       -0.30036       -0.24836
H          6.88590        0.22113       -1.40008
H          6.41497        1.90876       -1.56060
H          4.77195        3.04544       -1.95226
H          3.45054        4.74930       -2.99710
H          2.57265        2.09186       -6.29569
H          3.87960        0.36375       -5.27691
H          6.74287       -1.04423       -2.97917
H          4.89524       -2.01679       -1.85777
H          5.27949       -2.95071       -3.30611
H          2.95068       -0.93820       -3.07117
H          2.78750       -2.70922       -2.93826
H          3.26639       -1.97158       -4.47715
H          5.13532       -1.07197       -5.57149
H          6.67404       -1.83121       -5.15310
H          6.56661       -0.05968       -5.33934
