21

C          1.10574        0.00735        0.06660
N          2.51698        0.00612        0.06602
C          2.99045       -1.19281       -0.49060
C          4.52606       -1.26589       -0.52367
C          5.08621       -2.55884       -1.12294
C          6.61654       -2.62413       -1.15586
C          7.16492       -3.92229       -1.75762
H          0.69766        0.94211        0.49996
H          0.62203       -0.84736        0.65406
H          0.62227       -0.09665       -0.96535
H          2.62500       -1.38353       -1.56245
H          2.62406       -2.13454        0.05497
H          4.89645       -1.13762        0.50929
H          4.89757       -0.39477       -1.09264
H          4.69798       -2.68221       -2.15082
H          4.70068       -3.42282       -0.55081
H          7.00605       -2.50229       -0.12987
H          7.00373       -1.76232       -1.72720
H          6.81934       -4.79860       -1.18689
H          8.26607       -3.94305       -1.76714
H          6.81918       -4.05370       -2.79501
