15

F          1.03421       -1.58388        1.45665
S          2.44818       -1.12934        2.13819
O          2.23190        0.26350        2.47995
O          2.62577       -2.07460        3.22405
N          3.33918       -1.38698        0.85511
C          4.66998       -1.18548        0.84927
C          5.26145       -1.45596       -0.57790
C          4.94912       -2.85510       -1.20918
F          3.65794       -2.99205       -1.54831
F          5.68291       -2.99602       -2.35359
F          5.29334       -3.86510       -0.38627
F          4.79999       -0.52060       -1.46176
F          6.62630       -1.34563       -0.54373
F          5.12413        0.12364        1.17117
F          5.44417       -1.98681        1.73510
