18

C          1.14602       -0.74669       -0.51315
C          2.55939       -0.21856       -0.26398
C          2.59982        1.30287       -0.01521
N          1.83324        1.58941        1.19559
S          0.90955        2.82722        1.19436
O          0.31031        3.23044       -0.08245
O          0.06795        2.87701        2.38052
F          1.94772        4.16863        1.46745
C          4.05107        1.79609        0.12152
H          1.13511       -1.83978       -0.64675
H          0.70458       -0.28894       -1.41206
H          0.49886       -0.48871        0.33612
H          3.21420       -0.45871       -1.12089
H          2.99193       -0.71903        0.62034
H          2.14879        1.79706       -0.89986
H          4.52679        1.32687        0.99693
H          4.06826        2.88322        0.27354
H          4.64771        1.55438       -0.77471
