41

C          4.40078       -1.68191       -2.79048
C          4.42772       -0.88290       -1.48311
C          4.90287       -1.69984       -0.26956
C          4.96564       -0.90550        1.03580
Ta         5.58010       -1.79881        2.97342
C          4.09490       -2.42459        4.49475
C          3.81961       -3.84671        4.96060
S          5.24374       -4.45761        5.94138
C          4.59202       -6.06374        6.47683
C          7.51571       -1.61798        3.98403
C          8.63669       -0.82471        3.30796
C          9.86879       -0.55132        4.18823
C         10.96732        0.24016        3.47081
H          4.04310       -1.07942       -3.64071
H          3.74179       -2.55997       -2.70145
H          5.40578       -2.05480       -3.04312
H          3.42008       -0.48146       -1.27367
H          5.08177       -0.00057       -1.60145
H          5.89852       -2.12524       -0.48208
H          4.23542       -2.56882       -0.13691
H          3.98343       -0.42623        1.23031
H          5.66923       -0.05165        0.92485
H          5.12303       -0.03835        3.31498
H          4.78084       -3.27244        2.27602
H          6.67356       -2.63938        1.80770
H          3.20026       -2.05850        3.94540
H          4.20346       -1.75152        5.37014
H          3.69432       -4.50786        4.08913
H          2.93004       -3.94130        5.61358
H          5.35253       -6.53043        7.11703
H          4.39706       -6.72501        5.62004
H          3.66609       -5.94321        7.05953
H          7.86667       -2.63118        4.26253
H          7.22727       -1.11721        4.93757
H          8.24748        0.14964        2.95770
H          8.95625       -1.36293        2.39913
H         10.27517       -1.51371        4.54467
H          9.54884       -0.00497        5.09240
H         11.32361       -0.29859        2.57880
H         11.83801        0.42621        4.11918
H         10.59032        1.21753        3.13066
