43

N          4.58572       -1.46573        1.00128
C          4.09493       -0.11005        1.31493
C          4.55970        0.91153        0.27373
C          3.97095        0.73551       -1.14918
C          4.44926        1.72935       -2.17954
C          5.65032        1.51474       -2.88987
C          6.49875        0.35977       -2.66976
C          7.66183        0.12967       -3.39266
C          8.12676        1.00576       -4.39501
C          7.32742        2.14384       -4.62480
C          6.15993        2.39916       -3.91792
C          9.42352        0.77578       -5.12638
C          3.50784        2.84631       -2.51985
C          3.47588        4.05335       -1.53492
C          4.87244        4.66123       -1.36872
C          4.97155        5.68772       -0.27176
C          6.39136        6.29737       -0.06639
F          7.28624        5.34372        0.26951
F          6.82618        6.90355       -1.19724
F          6.39224        7.22803        0.92187
F          4.13270        6.77192       -0.49870
F          4.60795        5.16980        0.95568
H          4.42527       -2.09629        1.78773
H          5.59746       -1.43184        0.85781
H          4.40655        0.23797        2.32207
H          2.99059       -0.14909        1.32094
H          5.66241        0.88442        0.20968
H          4.30829        1.91798        0.64516
H          2.86793        0.80961       -1.05533
H          4.16920       -0.30535       -1.46722
H          6.20606       -0.37930       -1.92100
H          8.24039       -0.77659       -3.17389
H          7.63905        2.86366       -5.39174
H          5.60717        3.30767       -4.16759
H          9.62930       -0.29960       -5.25967
H         10.30518        1.20109       -4.60541
H          9.40511        1.23116       -6.13042
H          2.46289        2.46828       -2.55793
H          3.71241        3.24539       -3.52958
H          3.11662        3.70477       -0.55388
H          2.76112        4.81861       -1.88708
H          5.20898        5.13522       -2.30314
H          5.57504        3.83544       -1.15583
