24

N          1.44375       -0.70598        0.18455
C          2.76471       -0.01270        0.18342
C          2.97031        0.71418       -1.11795
C          2.44309        2.12430       -1.11215
C          0.92065        2.20503       -1.31619
C          0.45237        3.66848       -1.32136
C         -1.03542        3.92856       -1.32089
C         -1.86013        3.38848       -2.53304
F         -1.93380        2.04419       -2.53347
F         -3.13204        3.86641       -2.50810
F         -1.30149        3.78345       -3.70471
F         -1.64649        3.42849       -0.19265
F         -1.26963        5.30197       -1.31025
F          4.43827        0.86263       -1.26044
H          1.43733       -1.44750        0.89205
H          1.37530       -1.14904       -0.73982
H          3.61708       -0.70767        0.30474
H          2.76417        0.66045        1.09105
H          2.94331        2.68628       -1.92052
H          2.67923        2.67952       -0.15151
H          0.41328        1.64230       -0.51868
H          0.67167        1.70109       -2.26196
H          0.87526        4.20815       -2.18368
H          0.82682        4.17532       -0.41614
