38

O          1.19169        0.23385        0.09320
C          2.39163        0.16060       -0.18222
O          3.10443        0.63595       -1.07753
C          3.24168       -0.88525        0.89549
C          2.82971       -0.60528        2.38351
C          1.36678       -0.37557        3.01878
C          0.21005       -1.43970        2.91963
F          0.68078       -2.68615        3.14863
F         -0.69198       -1.16231        3.90420
F         -0.45172       -1.41421        1.76563
F          1.62967       -0.30417        4.37390
F          0.86206        0.82182        2.66639
F          3.39245       -1.57489        3.19601
F          3.43370        0.58441        2.74355
C          2.86897       -2.30624        0.42087
C          3.20863       -2.68268       -1.08061
F          4.48330       -2.40532       -1.42115
F          3.03223       -4.02371       -1.23507
F          2.38724       -2.07202       -1.94514
F          3.46174       -3.31893        1.17619
F          1.52891       -2.53550        0.52757
C          4.76024       -0.62519        0.85800
C          5.72057       -1.59740        1.15705
C          7.09061       -1.29791        1.13219
C          7.53567       -0.01602        0.83400
C          6.57936        0.97127        0.57458
C          5.21749        0.67833        0.58149
C          7.06105        2.36345        0.26784
F          7.96393        2.80621        1.20154
F          7.71518        2.42502       -0.93498
F          6.06657        3.27889        0.22048
C          8.07123       -2.39924        1.42610
F          7.76010       -3.07866        2.56821
F          8.11291       -3.33520        0.42913
F          9.34745       -1.94370        1.57801
H          5.41909       -2.60595        1.42260
H          8.59945        0.21574        0.82088
H          4.49964        1.45995        0.36071
