51

C          3.40498        0.62659        2.43323
P          2.98020       -0.02554        0.64680
C          1.06897        0.38025        0.74584
C          0.30037        0.10625        1.88562
C         -1.09049        0.27176        1.89506
C         -1.77129        0.72293        0.75446
C         -1.00981        0.99498       -0.39308
C          0.37811        0.81904       -0.39169
C         -3.27417        0.87954        0.75090
C          3.42799        1.72018       -0.14775
C          4.33002        1.71661       -1.22078
C          4.74014        2.89523       -1.84692
C          4.24697        4.15182       -1.42582
C          3.33382        4.15597       -0.35201
C          2.94057        2.96561        0.27228
Si         4.79312        5.72240       -2.27946
C          4.59742        5.53317       -4.17196
C          3.19618        5.08680       -4.60409
C          3.01822        4.99430       -6.10273
F          3.88459        4.11744       -6.68670
F          1.75985        4.58398       -6.44191
F          3.20943        6.19825       -6.72810
C          3.76083        7.20953       -1.71884
C          6.62268        6.10404       -1.96667
H          3.52160       -0.24875        3.09098
H          2.66324        1.30639        2.87937
H          4.36846        1.15397        2.37320
H          2.73290       -0.50277       -0.75101
H          4.41663       -0.39808        0.48049
H          2.66714       -1.37869        1.17808
H          0.79793       -0.25705        2.79035
H         -1.66079        0.04847        2.80366
H         -1.51454        1.35140       -1.29783
H          0.94811        1.02507       -1.30396
H         -3.65769        1.09367        1.75952
H         -3.77927       -0.03617        0.39942
H         -3.59155        1.69705        0.08662
H          4.71545        0.74821       -1.56412
H          5.45272        2.83780       -2.67894
H          2.91714        5.10441        0.00336
H          2.22347        3.01139        1.09736
H          5.34064        4.80003       -4.52370
H          4.85590        6.49323       -4.64768
H          2.42050        5.78106       -4.24685
H          2.95578        4.09740       -4.18773
H          2.68784        7.05934       -1.90523
H          4.07435        8.12029       -2.25081
H          3.88490        7.39249       -0.64207
H          7.25379        5.25681       -2.27096
H          6.80266        6.28116       -0.89675
H          6.95459        6.99413       -2.52235
