14

Ga         0.97312        0.03025       -0.25991
C          3.00272       -0.16543       -0.07860
C          3.64875       -0.85233       -1.28114
C          5.17873       -0.99356       -1.20807
H          0.34599        0.70304        1.07091
H          0.32999       -1.44140       -0.49169
H          0.66044        0.96098       -1.55187
H          3.22491       -0.73195        0.84447
H          3.43779        0.84179        0.05928
H          3.38556       -0.30131       -2.20270
H          3.20367       -1.85605       -1.40871
H          5.65803       -0.00418       -1.12517
H          5.60272       -1.50020       -2.09368
H          5.47476       -1.57075       -0.31672
