59

C          8.60595       -0.93485       -5.61067
C          8.07681       -0.64951       -4.20317
C          8.74437        0.55735       -3.53622
C          8.23242        0.83773       -2.12043
C          8.88101        2.05718       -1.45841
C          8.39345        2.31005       -0.02884
C          9.02397        3.54287        0.63015
C          8.57335        3.76332        2.08196
Si         9.26187        5.32724        2.92531
C          8.65451        6.86472        2.04128
C          7.32489        7.30520        2.18502
C          6.84381        8.42569        1.50566
C          7.65818        9.17273        0.63056
C          8.98661        8.72062        0.47123
C          9.46706        7.61010        1.16244
C          7.10926       10.33149       -0.16680
C          8.08064       11.51031       -0.20121
F          8.56401       11.85868        1.05313
F          9.19845       11.31836       -0.96046
F          7.49995       12.64859       -0.68628
C          6.95102        9.82573       -1.81485
O          7.78921        8.98258       -2.16420
O          6.01412       10.39308       -2.40200
C          5.72139       10.83002        0.29099
C          5.61605       11.51852        1.66023
C          8.66191        5.31120        4.72557
C         11.15676        5.25719        2.93009
H          8.10483       -1.80129       -6.06579
H          9.68614       -1.14531       -5.59317
H          8.45052       -0.07193       -6.27533
H          8.21984       -1.54009       -3.56725
H          6.98748       -0.48046       -4.24595
H          8.58964        1.45202       -4.16429
H          9.83694        0.39682       -3.50390
H          8.40183       -0.05399       -1.49002
H          7.13792        0.98198       -2.15176
H          8.68775        2.95295       -2.07313
H          9.97804        1.92666       -1.45019
H          8.60219        1.41895        0.59111
H          7.29530        2.42680       -0.03161
H          8.78310        4.43594        0.02957
H         10.12305        3.44191        0.59309
H          8.83836        2.88289        2.69595
H          7.47146        3.83492        2.11741
H          6.63718        6.76949        2.84734
H          5.80417        8.71349        1.65938
H          9.64481        9.23362       -0.22469
H         10.50632        7.31185        0.99752
H          5.04283        9.96512        0.25452
H          5.35705       11.49388       -0.50135
H          6.01792       10.90071        2.47605
H          4.56064       11.73374        1.89037
H          6.15764       12.47371        1.67715
H          7.56443        5.34499        4.78251
H          9.04913        6.18141        5.27430
H          8.99637        4.40104        5.24578
H         11.57195        5.24144        1.91269
H         11.50964        4.35364        3.44952
H         11.57745        6.13141        3.44722
