12

C          0.93016        0.21140        0.08624
N          2.34710        0.04757       -0.12246
C          2.84087       -1.11037       -0.40949
C          2.42880       -2.43402        0.30835
F          1.11411       -2.74674        0.13220
F          3.14377       -3.53708       -0.05089
F          2.60401       -2.31154        1.67030
F          2.55138       -1.66076       -1.93355
F          4.24660       -1.12670       -0.42072
H          0.72061        1.27869        0.27203
H          0.51878       -0.34335        0.95923
H          0.32151       -0.08739       -0.79224
