54

I          1.16037        0.11559       -0.92499
Ga         3.30572       -0.12015        0.61729
C          4.35232        1.66782        0.26344
C          5.49347        1.99496        1.25418
F          6.42853        1.00736        1.26281
F          6.15229        3.15624        0.96619
F          5.01915        2.11742        2.52067
F          4.95134        1.67867       -0.99640
F          3.52141        2.78528        0.29711
C          4.39752       -1.67952       -0.02353
C          5.43569       -2.17380        0.78859
C          6.19528       -3.28513        0.41551
C          5.94808       -3.96752       -0.79245
C          4.92321       -3.46262       -1.61551
C          4.17013       -2.34575       -1.23912
Si         6.94938       -5.48758       -1.24590
C          8.70443       -5.00631       -1.79757
C          8.77905       -4.09375       -3.03043
C         10.21453       -3.79433       -3.47982
C         10.31276       -2.91661       -4.73155
C         11.75414       -2.69098       -5.19970
C         11.87780       -1.83240       -6.46205
C         13.32399       -1.63830       -6.93131
C         13.44873       -0.78211       -8.19433
C          7.11893       -6.63056        0.25498
C          6.11070       -6.45221       -2.64282
H          2.84330       -0.18584        2.12415
H          5.65783       -1.68750        1.74305
H          6.98754       -3.63155        1.08773
H          4.69528       -3.95367       -2.56591
H          3.37325       -1.99234       -1.89973
H          9.26879       -5.93881       -1.98304
H          9.20181       -4.51824       -0.94090
H          8.25116       -3.14867       -2.81987
H          8.23671       -4.55725       -3.87334
H         10.73758       -4.75003       -3.66634
H         10.76020       -3.31118       -2.64996
H          9.83028       -1.94325       -4.53700
H          9.73323       -3.38167       -5.54894
H         12.23181       -3.67083       -5.38060
H         12.33242       -2.22254       -4.38355
H         11.41727       -0.84540       -6.28069
H         11.29005       -2.29243       -7.27644
H         13.78086       -2.62688       -7.11017
H         13.91024       -1.18028       -6.11644
H         12.89985       -1.23070       -9.03619
H         14.49705       -0.66707       -8.50488
H         13.03684        0.22561       -8.03472
H          7.60509       -6.11470        1.09519
H          7.72181       -7.51755        0.00991
H          6.13150       -6.96866        0.59915
H          6.00720       -5.85048       -3.55625
H          5.10538       -6.77885       -2.34206
H          6.69925       -7.34685       -2.89476
