27

C          4.54620        3.70231        0.89198
O          4.14263        2.69586       -0.00896
C          5.00956        1.55941        0.02630
C          4.65761        0.61134       -1.11934
O          5.11850        1.02379       -2.38209
C          6.52883        0.68548       -2.60392
C          7.04754        1.17915       -3.92764
B          8.67848        0.90809       -4.07550
N          9.41483        1.76287       -2.97718
C          9.17304        1.24626       -5.61549
H          3.82715        4.52862        0.80469
H          5.55941        4.08151        0.65734
H          4.54873        3.34229        1.94190
H          4.89221        1.03638        1.00062
H          6.06373        1.88148       -0.06284
H          3.55665        0.53782       -1.17519
H          5.05089       -0.39680       -0.86282
H          6.61561       -0.41864       -2.53764
H          7.14400        1.11569       -1.79366
H          6.85198        2.26802       -4.00163
H          6.48661        0.70040       -4.75108
H          8.92171       -0.29640       -3.83183
H          9.38860        2.75760       -3.23078
H         10.41122        1.53090       -2.95126
H          8.97507        2.30313       -5.89195
H          8.67205        0.62188       -6.38136
H         10.26146        1.08975       -5.74290
