10

O          1.00993       -0.04242        0.18910
C          2.23530       -0.15251        0.01894
O          2.95868       -1.11424       -0.34248
C          3.12212        1.16096        0.31348
Br         2.67568        2.54689       -1.10843
Cl         2.67670        1.88155        1.92527
C          4.62542        0.96682        0.27845
H          4.90739        0.55511       -0.69699
H          4.89698        0.23034        1.04696
H          5.15374        1.91141        0.46488
