55

C         12.92173        8.54651       -4.00274
O         13.10524        7.48273       -3.09227
C         13.37156        6.25068       -3.76254
C         13.34878        5.09759       -2.78024
O         12.01342        4.77500       -2.45678
C         11.90243        3.60489       -1.63938
C         10.43032        3.21014       -1.52257
Ta         9.74838        2.06577       -3.27314
C          8.54868        0.15459       -3.23102
F          8.88647       -0.63027       -2.11359
F          7.16846        0.14300       -3.21178
F          8.85849       -0.66036       -4.33231
C         10.31607        3.29932       -4.99929
C         11.49901        2.91949       -5.67501
C         12.06761        3.70876       -6.68247
C         11.48904        4.93695       -7.05980
C         10.30193        5.32002       -6.39637
C          9.73165        4.51701       -5.40723
Si        12.28828        6.01277       -8.36992
C         12.25436        5.10494      -10.05087
C         12.84660        5.90824      -11.21420
C         12.86972        5.16595      -12.53312
F         11.62839        4.78099      -12.94239
F         13.38589        5.94364      -13.53648
F         13.63587        4.03920      -12.48505
C         11.37289        7.66101       -8.54897
C         14.10116        6.36260       -7.93738
H         12.71884        9.45128       -3.41418
H         12.06749        8.35982       -4.68180
H         13.82477        8.72033       -4.62361
H         14.36855        6.29823       -4.24884
H         12.61440        6.06667       -4.54660
H         13.93055        5.36498       -1.87241
H         13.85135        4.22918       -3.25576
H         12.36549        3.81657       -0.64853
H         12.50957        2.78626       -2.09009
H          9.83601        4.07473       -1.19076
H         10.33132        2.44761       -0.72328
H         10.89446        0.66518       -3.26465
H          8.32762        2.26559       -2.25324
H          8.27801        2.24740       -4.23804
H         11.99854        1.98037       -5.40833
H         12.98539        3.36139       -7.17079
H          9.81293        6.26310       -6.66007
H          8.80135        4.84690       -4.93504
H         11.21037        4.83362      -10.27122
H         12.79990        4.15538       -9.93152
H         13.88813        6.20236      -11.01395
H         12.27922        6.83389      -11.39302
H         10.32926        7.51491       -8.86188
H         11.86046        8.30851       -9.29263
H         11.36180        8.20712       -7.59481
H         14.66277        5.42629       -7.80634
H         14.16898        6.92156       -6.99339
H         14.60755        6.95488       -8.71424
