80

C          2.18987        4.37788       -5.30473
C          3.53499        4.00743       -5.93504
C          3.96599        2.56946       -5.62240
C          5.28273        2.13065       -6.28154
C          6.54494        2.86486       -5.79397
C          6.94844        2.54033       -4.34487
Ta         8.10374        0.83076       -3.76030
S          6.82509       -1.29476       -3.84342
O          5.90096       -1.14458       -4.99695
O          7.57827       -2.55270       -3.70614
C          5.52413       -1.58674       -2.38875
C          4.37935       -0.53804       -2.26702
C          3.56443       -0.54990       -0.92391
F          3.09984       -1.78649       -0.64752
F          4.30520       -0.12576        0.11628
F          2.49602        0.27998       -1.03367
F          4.90067        0.72431       -2.37768
F          3.48001       -0.71963       -3.26862
F          4.94969       -2.80364       -2.61309
F          6.18386       -1.65372       -1.19441
C         10.10119        1.16191       -4.59847
C         10.31055        2.31263       -5.39700
C         11.55749        2.62189       -5.94723
C         12.68104        1.79827       -5.74107
C         12.47692        0.63914       -4.95854
C         11.23130        0.33300       -4.41402
Si        14.35818        2.30303       -6.38867
C         14.96148        3.82842       -5.40353
C         14.84406        3.63383       -3.88595
C         15.37224        4.81572       -3.09553
C         15.17739        4.77345       -1.53610
C         15.72185        3.55266       -0.70039
C         17.26281        3.19093       -0.67909
C         18.28180        4.27906       -0.17414
C         19.71055        3.71180        0.17652
F         19.68329        2.96129        1.29079
F         20.20369        2.97455       -0.83631
F         20.54078        4.75363        0.39042
F         18.45269        5.21826       -1.13390
F         17.80705        4.87378        0.95112
F         17.36845        2.11714        0.15715
F         17.63466        2.79352       -1.92257
F         15.34212        3.76479        0.58877
F         15.09758        2.42501       -1.13966
F         15.71918        5.90340       -0.99266
F         13.83611        4.79267       -1.29309
F         16.71779        5.00898       -3.33097
F         14.74524        5.98086       -3.47989
C         15.62460        0.91299       -6.17380
C         14.29335        2.81596       -8.20881
H          1.89734        5.41127       -5.54285
H          2.22823        4.28579       -4.20881
H          1.38834        3.71245       -5.66032
H          4.30453        4.71507       -5.58558
H          3.47822        4.13811       -7.03008
H          3.16814        1.88220       -5.95129
H          4.02895        2.43959       -4.52913
H          5.19342        2.28071       -7.37209
H          5.41563        1.04954       -6.12318
H          6.40546        3.95491       -5.91361
H          7.37299        2.60657       -6.47531
H          6.08423        2.58801       -3.65578
H          7.66839        3.29910       -3.95667
H          7.76031        0.35416       -2.08942
H          9.22667        1.43056       -2.54223
H          8.51008       -0.37816       -4.98881
H          9.48666        3.00381       -5.60041
H         11.64758        3.53288       -6.55007
H         13.31080       -0.04547       -4.77459
H         11.13297       -0.58476       -3.82590
H         14.35847        4.69617       -5.71313
H         16.00373        4.05117       -5.68361
H         15.40325        2.74504       -3.56081
H         13.79484        3.46984       -3.59851
H         15.74919        0.62374       -5.12058
H         16.60875        1.22295       -6.55471
H         15.31634        0.01436       -6.72685
H         13.54368        3.60359       -8.37093
H         14.01784        1.96190       -8.84344
H         15.26496        3.19967       -8.55397
