71

N          6.51169       -1.42743       -0.05930
C          5.48570       -0.75090       -0.87983
C          5.12584        0.62241       -0.29353
C          4.03389        1.35141       -1.05285
C          2.69182        0.88084       -0.90091
C          2.32347       -0.03511        0.14538
C          1.02948       -0.52137        0.29114
C         -0.00450       -0.17275       -0.59159
C          0.34036        0.68306       -1.65374
C          1.62375        1.18788       -1.81218
C         -0.70994        0.98555       -2.68442
F         -1.93620        1.23463       -2.12389
F         -0.41876        2.06361       -3.46400
F         -0.91101       -0.06368       -3.55019
C          0.70319       -1.46684        1.41093
F          1.73764       -1.67927        2.27368
F         -0.34827       -1.02969        2.17651
F          0.32990       -2.70886        0.95692
C          4.42786        2.44131       -1.90420
C          5.76852        2.56627       -2.39825
C          6.17781        3.62313       -3.19928
C          5.30746        4.67249       -3.57857
C          3.98700        4.58122       -3.06463
C          3.56364        3.52524       -2.27328
Si         5.82489        6.07488       -4.67909
C          4.59405        6.23459       -6.13723
C          4.38876        4.91736       -6.89623
C          3.37624        5.03501       -8.01987
C          3.18278        3.77798       -8.94381
C          2.80470        2.37897       -8.32205
C          1.49072        2.16805       -7.47312
C          0.05885        2.42452       -8.09409
C         -0.37041        1.61906       -9.37509
F         -0.15645        0.30022       -9.22514
F         -1.69150        1.81667       -9.57434
F          0.28284        2.04688      -10.46974
F         -0.82297        2.09180       -7.11610
F         -0.08681        3.74309       -8.37619
F          1.51976        0.86580       -7.08044
F          1.57155        2.94943       -6.36902
F          2.75556        1.49464       -9.36213
F          3.82724        2.00289       -7.50677
F          2.25247        4.07331       -9.89494
F          4.37363        3.55891       -9.58451
F          2.13533        5.38611       -7.54523
F          3.74621        6.03525       -8.90182
C          5.80588        7.75821       -3.80328
C          7.56239        5.78956       -5.38453
H          6.68164       -2.36812       -0.42064
H          6.14642       -1.55644        0.88768
H          4.55661       -1.34035       -0.99572
H          5.89940       -0.61124       -1.89149
H          6.03849        1.23373       -0.24490
H          4.83088        0.47558        0.76374
H          3.06989       -0.35530        0.86821
H         -1.01638       -0.55221       -0.46830
H          1.83337        1.79926       -2.68640
H          6.49638        1.78666       -2.16805
H          7.21331        3.62510       -3.55411
H          3.26480        5.37798       -3.27666
H          2.55078        3.55604       -1.87194
H          4.93952        7.02553       -6.82151
H          3.63020        6.57498       -5.72573
H          4.04913        4.13415       -6.20333
H          5.32990        4.56218       -7.34266
H          4.81839        7.95737       -3.36235
H          6.04164        8.58184       -4.49447
H          6.54083        7.77566       -2.98587
H          7.62970        4.84697       -5.94629
H          8.31120        5.74717       -4.58056
H          7.84586        6.60911       -6.06144
