45

C          5.39928        9.12810        1.85355
O          5.02117        8.01985        2.64235
C          5.99051        7.72328        3.64706
C          5.71326        6.36423        4.26081
O          6.17469        5.36355        3.38531
C          6.11057        4.03419        3.93687
C          6.88487        3.07838        3.04583
Al         8.66726        3.82661        2.37632
C          9.77991        2.34850        1.43287
C         10.33007        2.73422        0.18866
C         11.09322        1.88324       -0.61721
C         11.33050        0.56532       -0.21472
C         10.78420        0.12243        0.98890
C         10.02971        1.00116        1.79743
C          9.49945        0.45826        3.08935
O          9.50934        1.01472        4.16412
O          8.97156       -0.82123        3.00631
C          9.74101        4.82577        3.80138
C          9.76268        4.24687        5.20243
S         10.64845        5.35607        6.39753
C         10.38782        4.45266        7.95331
H          4.60852        9.28274        1.10675
H          6.35721        8.94688        1.33035
H          5.50334       10.05207        2.45899
H          5.96476        8.50548        4.43412
H          7.00472        7.70692        3.20626
H          4.62569        6.26168        4.46785
H          6.24399        6.30514        5.23532
H          5.03613        3.76775        4.06322
H          6.55476        4.05512        4.95413
H          6.26981        2.80210        2.17112
H          7.05723        2.14910        3.61362
H          8.48624        4.87087        1.11687
H         10.13501        3.75472       -0.15670
H         11.50605        2.24619       -1.56292
H         11.93601       -0.10791       -0.82544
H         10.98682       -0.89962        1.32539
H          8.95640       -1.05964        2.06199
H          9.29759        5.83777        3.81865
H         10.77272        4.94914        3.42686
H         10.25658        3.26597        5.23148
H          8.74544        4.11884        5.60580
H         10.85791        5.03070        8.76047
H         10.84552        3.45347        7.91939
H          9.31507        4.34791        8.17425
