34

C          4.14567       -0.39447        0.77926
C          4.29387        0.90660       -0.01042
C          2.97001        1.67522       -0.22787
C          2.25549        2.17710        1.02380
S          3.04939        3.02911        2.17525
O          4.29180        3.65220        1.71652
O          2.17177        3.73953        3.10695
F          3.76658        1.88087        3.33301
C          0.78832        1.88903        1.21415
C          0.41140        0.48915        1.76095
C          0.84722        0.31972        3.22141
C          0.49004       -1.02558        3.80031
C          0.95570       -1.25181        5.27107
F          0.42026       -0.31900        6.09432
F          0.56706       -2.47045        5.72746
F          2.29813       -1.18417        5.37147
F         -0.88243       -1.23182        3.80893
F          1.02954       -2.06516        3.07005
C          3.17712        2.80311       -1.26233
H          5.10795       -0.92250        0.85996
H          3.43061       -1.07904        0.29431
H          3.79120       -0.19174        1.79783
H          4.72431        0.68382       -1.00367
H          5.00742        1.57240        0.49883
H          2.26870        0.94625       -0.68082
H          0.28221        1.99891        0.23532
H          0.34523        2.65166        1.87400
H          0.88566       -0.28926        1.14293
H         -0.68025        0.34641        1.68094
H          0.37570        1.08880        3.85235
H          1.93446        0.47155        3.31449
H          3.86925        3.55496       -0.85811
H          2.22410        3.30641       -1.48124
H          3.59093        2.41621       -2.21037
