18

S          1.38342        0.73929       -0.13207
Al         3.19078       -0.33526        0.60936
S          3.72812       -2.06192       -1.00160
O          4.85548       -2.92577       -0.62194
O          2.41950       -2.69374       -1.28012
C          4.26328       -1.39992       -2.72967
F          3.33350       -0.56451       -3.24660
F          5.43429       -0.73312       -2.65309
F          4.41862       -2.43844       -3.58207
S          4.88548        1.33388        0.97029
O          4.48947        2.04579        2.20027
O          6.27137        0.86192        0.83996
C          4.76373        2.70433       -0.38438
F          4.83598        2.16164       -1.62150
F          3.60543        3.39374       -0.29344
F          5.78562        3.57790       -0.24224
H          0.96241       -0.40733       -0.72435
H          3.27511       -1.19752        1.94357
