69

N          2.28810       -1.14172       -4.81924
C          1.83188       -0.78748       -3.45441
In         2.81590       -1.96092       -1.80726
C          2.34680       -0.64786       -0.01849
C          1.08857       -0.02736        0.11935
C          0.81968        0.89961        1.13663
C          1.80506        1.23606        2.07175
C          3.05713        0.63217        1.96020
C          3.32009       -0.28557        0.92768
C          4.15422        0.99527        2.92178
F          3.70367        1.68295        4.01397
F          4.81130       -0.10206        3.40109
F          5.11257        1.78504        2.34497
C         -0.53451        1.53544        1.27395
F         -1.30639        1.40225        0.16267
F         -1.26010        0.99916        2.31074
F         -0.45822        2.87823        1.53760
C          5.03803       -1.74413       -2.05128
C          5.55601       -0.99514       -3.13022
C          6.93020       -0.81009       -3.31556
C          7.87400       -1.36022       -2.42213
C          7.36666       -2.09535       -1.33255
C          5.98876       -2.28088       -1.16136
Si         9.71123       -1.24492       -2.77135
C         10.28591        0.54096       -3.14356
C         10.28643        1.50394       -1.94787
C         10.96098        2.82511       -2.27993
C         10.93462        3.95160       -1.18408
C         11.53825        3.68748        0.24795
C         13.07096        3.34470        0.45332
C         14.14704        4.36977       -0.06775
C         15.58205        4.16820        0.55589
F         15.97730        2.88468        0.46221
F         16.45580        4.93577       -0.12787
F         15.61563        4.54371        1.84604
F         14.27444        4.24454       -1.40947
F         13.76496        5.63937        0.22665
F         13.23363        3.23806        1.80529
F         13.32680        2.13184       -0.09698
F         11.27868        4.79971        0.98753
F         10.86163        2.64534        0.80748
F         11.55979        5.05996       -1.67996
F          9.62774        4.27120       -0.96072
F         12.28467        2.63011       -2.61762
F         10.36686        3.41156       -3.37486
C         10.72982       -1.90498       -1.31724
C         10.13811       -2.23787       -4.32759
H          1.68479       -0.72545       -5.53475
H          2.23652       -2.15020       -4.96159
H          0.73145       -0.84440       -3.33121
H          2.11014        0.26203       -3.26191
H          2.28117       -3.63504       -1.59108
H          0.29135       -0.25313       -0.59298
H          1.60078        1.95554        2.86357
H          4.32445       -0.71386        0.86187
H          4.86475       -0.56202       -3.86052
H          7.27148       -0.23203       -4.18275
H          8.05537       -2.54065       -0.60718
H          5.65557       -2.87599       -0.30399
H          9.66227        0.95011       -3.95300
H         11.30697        0.45851       -3.55112
H         10.82221        1.06868       -1.09251
H          9.26163        1.71824       -1.61086
H         10.50278       -1.37841       -0.37931
H         11.80667       -1.79758       -1.51552
H         10.52769       -2.97249       -1.15039
H          9.58065       -1.85635       -5.19518
H          9.86111       -3.29360       -4.19839
H         11.21180       -2.18897       -4.56312
