35

N          1.21916       -0.96972        2.98167
C          2.68847       -0.78671        3.04415
C          3.30682       -0.65662        1.65284
B          4.93041       -0.56696        1.73794
S          5.66329        0.54294        0.31306
O          4.85116        1.74882        0.09034
O          7.11925        0.69705        0.40369
C          5.44613       -0.45699       -1.36841
C          5.49089        0.42443       -2.65667
C          5.72480       -0.37355       -3.99912
C          5.37782        0.42063       -5.31102
F          5.96714        1.63128       -5.32460
F          5.82928       -0.27696       -6.38181
F          4.05026        0.58242       -5.45831
F          7.03193       -0.73358       -4.09255
F          4.96133       -1.50211       -4.01710
F          4.31104        1.09533       -2.78206
F          6.50095        1.32829       -2.55514
F          6.43471       -1.39984       -1.45622
F          4.24725       -1.11694       -1.34146
C          5.62873       -2.02644        1.80688
O          6.99003       -1.96399        2.39179
C          7.60406       -3.11622        2.58637
F          7.79629       -3.86528        1.44778
F          8.83034       -2.88485        3.11889
F          6.94982       -3.96717        3.46036
H          0.85572       -1.19857        3.90959
H          1.01552       -1.78014        2.39196
H          3.19053       -1.60682        3.59800
H          2.88570        0.13612        3.61290
H          2.88153        0.23153        1.16088
H          2.98978       -1.52666        1.04501
H          5.31131        0.16224        2.64443
H          5.71454       -2.54148        0.83783
H          5.02681       -2.66906        2.47072
