35

O          2.85540        4.88649       -0.31621
C          3.62797        3.94063        0.23541
O          4.25713        4.16221        1.25686
C          3.76605        2.64192       -0.51694
C          5.09553        2.24442       -0.73765
C          5.39899        1.07431       -1.42793
C          4.35459        0.27455       -1.89800
C          3.03275        0.65207       -1.66861
C          2.69264        1.83207       -0.96920
C          1.23499        2.09257       -0.70056
S          0.44445        3.01556       -1.88959
O          1.43736        3.97537       -2.42327
O         -0.37711        2.29607       -2.85905
C         -0.95623        4.20821       -1.21598
C         -0.72752        5.07589        0.05742
F          0.26005        5.96589       -0.12975
F         -1.86615        5.78123        0.32764
F         -0.45240        4.32446        1.13405
F         -1.16675        5.07789       -2.24876
F         -2.10020        3.50657       -1.02921
C          0.44137        1.08102        0.00895
C          0.92848        0.77114        1.47486
C          0.17983       -0.37133        2.25421
F         -1.15415       -0.18185        2.28202
F          0.42864       -1.58982        1.73651
F          0.61933       -0.38276        3.54051
F          2.24583        0.41664        1.47900
F          0.78736        1.89594        2.23092
F         -0.87944        1.46052        0.11897
F          0.37419       -0.21605       -0.60187
H          2.39843        4.54741       -1.13970
H          5.88922        2.87751       -0.33838
H          6.43959        0.78947       -1.59427
H          4.56601       -0.64487       -2.44774
H          2.22263        0.02215       -2.03234
