50

F          2.87085        2.06633       -0.78081
Nb         2.96733        0.18407       -0.39111
C          4.27320       -1.57942       -1.05759
C          5.39657       -2.01498       -0.30482
C          6.16222       -3.12810       -0.65128
C          5.86948       -3.89437       -1.80140
C          4.78090       -3.46823       -2.58166
C          4.01501       -2.35226       -2.21567
Si         6.84994       -5.43328       -2.19042
C          6.58434       -6.68109       -0.76533
C          7.28601       -8.03098       -0.94355
C          7.11264       -8.98017        0.22274
F          5.80576       -9.27502        0.47302
F          7.74262      -10.17696       -0.00531
F          7.63330       -8.48674        1.38205
C          6.28078       -6.22813       -3.81330
C          8.70694       -5.06613       -2.30677
C          1.27197       -0.18724        0.94644
C          1.24382       -0.06462        2.46747
C          1.78139        1.30304        2.91968
C          1.61590        1.56536        4.39877
C          2.23223        2.90733        4.90050
F          3.56636        2.93599        4.68831
F          1.68146        3.96231        4.25395
F          2.02006        3.08137        6.22692
F          0.27999        1.61068        4.75822
F          2.19291        0.57569        5.16478
H          3.60051       -0.50419        1.11964
H          4.65960        0.50245       -0.03728
H          2.17818       -0.59077       -1.82417
H          5.66439       -1.45498        0.59334
H          7.00510       -3.40726       -0.00729
H          4.50971       -4.01815       -3.48922
H          3.16984       -2.07554       -2.85044
H          5.49960       -6.83093       -0.65180
H          6.92384       -6.19660        0.16377
H          8.37219       -7.90993       -1.07682
H          6.90990       -8.56366       -1.83033
H          5.21785       -6.50584       -3.77277
H          6.85902       -7.13522       -4.04369
H          6.41027       -5.53123       -4.65357
H          9.06924       -4.58962       -1.38447
H          8.90489       -4.37057       -3.13470
H          9.30558       -5.97331       -2.47871
H          1.09960       -1.24149        0.64297
H          0.44572        0.39991        0.48900
H          1.88145       -0.84830        2.90068
H          0.22723       -0.20557        2.87821
H          1.26908        2.11710        2.38365
H          2.85197        1.36944        2.66961
