20

C          1.02072        0.07269        0.13907
C          2.55417        0.02203        0.06703
C          3.05549        0.19113       -1.37356
In         2.58179       -1.52359       -2.75292
Cl         4.07153       -1.05238       -4.74325
C          0.53102       -1.35029       -3.62355
C          3.15324        1.05707        1.03828
H          0.56281       -0.66731       -0.53276
H          0.65757        1.06599       -0.17520
H          0.65056       -0.11201        1.16070
H          2.86884       -0.97581        0.42845
H          4.15073        0.31412       -1.38810
H          2.63165        1.11269       -1.81302
H          3.07754       -3.11119       -2.12235
H          0.62245       -1.17301       -4.70456
H          0.00081       -0.49359       -3.18000
H         -0.07785       -2.25264       -3.46720
H          2.84254        2.07702        0.75598
H          4.25268        1.02769        1.01378
H          2.82968        0.88227        2.08008
