20

O          2.49658       -0.30204        2.99348
C          2.24786        0.70877        2.10447
O          1.38103        1.52738        2.35897
C          3.09036        0.66075        0.85161
B          4.64653        0.19834        1.08643
C          5.36857       -0.38069       -0.29189
C          5.64612        0.60162       -1.46938
C          6.22100        0.01997       -2.80945
F          7.37881       -0.64697       -2.62323
F          5.34799       -0.81007       -3.41796
F          6.47622        1.04036       -3.67583
F          4.47946        1.23204       -1.82364
F          6.53478        1.55600       -1.06311
F          6.61051       -0.95026        0.00061
F          4.60456       -1.41919       -0.84068
F          5.44370        1.22822        1.67209
H          3.32526       -0.73497        2.66324
H          2.99002        1.63194        0.34796
H          2.61085       -0.09028        0.19759
H          4.67521       -0.83672        1.80197
