43

C          4.27522        1.48812        0.11605
C          3.47212        0.22857       -0.26486
C          3.34656       -0.82963        0.83714
Nb         2.08408       -2.70410        0.50954
C          2.84398       -4.74485        0.14911
C          2.56758       -5.56327       -1.12135
C          3.47275       -5.12703       -2.28041
C          2.70404       -7.07926       -0.88441
C         -0.12146       -2.96625        0.32418
C         -0.76920       -4.04670        1.21464
C         -0.88565       -3.57313        2.67076
C         -2.14735       -4.48725        0.68571
C          4.71366       -1.40121        1.23713
H          4.28621        2.22592       -0.70391
H          5.32341        1.25247        0.35746
H          3.83931        1.98089        1.00079
H          3.92468       -0.24089       -1.15601
H          2.46199        0.53550       -0.57761
H          2.88851       -0.35010        1.72592
H          2.35888       -2.54215        2.33262
H          3.13561       -2.48068       -0.90243
H          1.50396       -1.51980       -0.66782
H          2.32690       -5.22900        1.01512
H          3.92550       -4.77293        0.38799
H          1.52046       -5.38277       -1.43395
H          4.52932       -5.33101       -2.03578
H          3.37991       -4.04665       -2.45428
H          3.23129       -5.67086       -3.20827
H          3.73358       -7.32677       -0.57686
H          2.47402       -7.66032       -1.79463
H          2.02881       -7.41787       -0.08418
H         -0.21954       -3.25159       -0.74478
H         -0.68007       -2.01701        0.42228
H         -0.12654       -4.94964        1.21211
H         -1.54205       -2.68816        2.72956
H          0.09782       -3.27982        3.06716
H         -1.31280       -4.35291        3.32246
H         -2.83987       -3.62946        0.66642
H         -2.60104       -5.27581        1.31170
H         -2.06933       -4.87115       -0.34246
H          5.21427       -1.84788        0.36121
H          4.61568       -2.18615        2.00567
H          5.40848       -0.64518        1.65437
