46

C          4.70094       -4.10696        6.68527
S          5.32881       -2.89152        5.49589
C          3.95812       -2.94601        4.28266
C          4.16604       -1.95536        3.12576
B          5.18443       -2.31331        1.89819
S          4.41822       -3.73252        0.81090
O          2.99401       -3.54008        0.56394
O          5.25093       -4.15869       -0.30555
F          4.43407       -5.10006        1.83156
C          6.73815       -2.56418        2.24080
C          7.36766       -3.81568        2.40397
C          8.71700       -3.92779        2.73296
C          9.49899       -2.77647        2.91900
C          8.90451       -1.51626        2.76067
C          7.55487       -1.42826        2.42429
C         10.94202       -2.90182        3.30174
C         11.95541       -3.39020        2.19555
C         12.11655       -2.57365        0.85729
C         12.70172       -1.10017        0.85194
C         14.12519       -0.85054        1.47832
C         14.79556        0.50623        1.03537
F         13.95867        1.54640        1.20504
F         15.88982        0.71040        1.80037
F         15.18885        0.46763       -0.25014
F         14.02583       -0.81915        2.82810
F         14.98247       -1.84145        1.11713
F         12.77843       -0.75354       -0.46935
F         11.82071       -0.26547        1.45180
F         12.93789       -3.31453        0.05437
F         10.90798       -2.48521        0.25150
F         13.20422       -3.49460        2.74821
F         11.57654       -4.63989        1.80416
F         11.45326       -1.71617        3.78486
F         11.10591       -3.83693        4.31216
H          5.43730       -4.18409        7.49582
H          4.58643       -5.09502        6.21665
H          3.73556       -3.79293        7.11006
H          3.03712       -2.70428        4.83971
H          3.87031       -3.97719        3.91017
H          4.47964       -0.98183        3.54486
H          3.17447       -1.77255        2.68015
H          5.09131       -1.43481        1.04742
H          6.78622       -4.72901        2.27392
H          9.16306       -4.91458        2.86346
H          9.49467       -0.61103        2.90411
H          7.11292       -0.43654        2.29663
