15

N          1.83417       -0.07088       -0.68223
Nb         3.15979        0.29889        0.77492
C          3.86383        1.63701       -0.97925
C          4.95285        2.74646       -0.90091
F          4.58819        3.76515       -0.08539
F          6.15488        2.28945       -0.47689
F          5.18680        3.31596       -2.13447
F          4.36975        0.76961       -1.98654
F          2.80731        2.32856       -1.63732
F          3.70254       -1.38343        1.56850
H          1.76543        0.25968       -1.63979
H          1.13328       -0.79198       -0.49950
H          3.45491        1.94864        1.35140
H          2.09495        0.85650        2.09632
H          4.89161        0.63255        0.75600
