48

C          0.40263       -0.42791       -0.34372
O          1.74999       -0.64814        0.01522
C          2.55857       -0.98159       -1.11146
C          3.97945       -1.25060       -0.63741
O          4.76047       -1.50289       -1.78430
C          6.09175       -1.99222       -1.45264
C          6.87881       -2.34776       -2.68380
Ga         8.59835       -3.30600       -2.15228
C          9.89941       -2.02530       -1.20474
C         11.02930       -1.50618       -1.85578
C         11.98598       -0.71942       -1.19347
C         11.82762       -0.39626        0.15332
C         10.69799       -0.88276        0.82157
C          9.76562       -1.69021        0.15667
C         10.54253       -0.58360        2.28611
F         11.22330       -1.47837        3.07448
F         11.02723        0.65159        2.62496
F          9.24848       -0.62042        2.70274
C         13.18527       -0.23741       -1.95556
F         13.87503       -1.27463       -2.53863
F         12.85538        0.60661       -2.97983
F         14.08786        0.43062       -1.18282
C          9.70833       -4.13398       -3.63909
C         10.77993       -5.06067       -3.01271
C         11.95346       -5.30894       -3.94185
O         11.99919       -6.20413       -4.78761
N         12.99974       -4.42509       -3.78618
H         -0.14269       -0.16869        0.57374
H         -0.05613       -1.33158       -0.79140
H          0.30113        0.40376       -1.06896
H          2.55965       -0.15292       -1.84694
H          2.15951       -1.88075       -1.62058
H          3.98465       -2.11988        0.05235
H          4.35733       -0.37786       -0.06435
H          5.96772       -2.87471       -0.79376
H          6.60813       -1.21079       -0.85814
H          7.08679       -1.45332       -3.29090
H          6.30197       -3.05236       -3.30452
H          8.23627       -4.41946       -1.04031
H         11.18271       -1.72535       -2.91696
H         12.56235        0.21687        0.67168
H          8.91453       -2.07767        0.72199
H         10.19518       -3.33519       -4.22503
H          9.09812       -4.70388       -4.35479
H         10.33203       -6.03301       -2.76761
H         11.15505       -4.63542       -2.06571
H         12.91373       -3.61082       -3.19007
H         13.72758       -4.42507       -4.49094
