22

O          1.24169        0.31873       -0.35948
C          2.56712        0.19732       -0.21232
O          3.24153       -0.25615       -1.13195
C          3.21599        0.68637        1.05778
C          4.48295        1.27686        0.90565
C          5.17964        1.79798        1.99242
C          4.61073        1.70931        3.27095
C          3.37715        1.09110        3.44669
C          2.64729        0.55341        2.35741
N          1.48477       -0.18528        2.57997
S          0.12118        0.54957        2.80539
O         -0.06576        1.31380        4.05030
O         -0.29346        1.32616        1.59119
C         -0.99304       -0.85815        2.89916
H          0.76125        0.72123        0.43421
H          4.90269        1.31546       -0.10111
H          6.15516        2.26667        1.84841
H          5.14069        2.11525        4.13666
H          2.93354        0.99295        4.43847
H         -0.69805       -1.47871        3.75212
H         -0.92971       -1.42366        1.96382
H         -2.00052       -0.45179        3.04646
