10

In         1.16163        0.70301       -0.14134
S         -0.19546        0.23425        1.99095
O          0.20171       -0.51612       -1.56991
C          3.16615       -0.23137        0.05609
H          0.96281        2.42712       -0.49914
H          0.17652       -1.06699        2.01756
H         -0.69397       -0.67063       -1.23296
H          3.20162       -0.81822        0.98510
H          3.98407        0.50260        0.07676
H          3.31842       -0.91373       -0.79246
