23

C          1.01688       -0.01650        0.06487
C          2.54800        0.01319        0.02983
C          3.11842        0.93119       -1.05659
C          4.64982        0.96948       -1.10210
C          5.20630        1.89111       -2.19361
C          6.73045        1.92901       -2.24147
S          7.37670        3.03567       -3.55455
O          6.83863        2.47169       -4.81144
O          6.83519        4.36915       -3.21349
O          8.84315        2.92539       -3.42026
H          0.63665       -0.68246        0.85393
H          0.60468       -0.36694       -0.89407
H          0.60430        0.98760        0.24864
H          2.93228       -1.01047       -0.12220
H          2.93203        0.33425        1.01377
H          2.73467        1.95625       -0.90590
H          2.73487        0.61116       -2.04210
H          5.03408       -0.05602       -1.25385
H          5.03402        1.29122       -0.11654
H          4.83496        2.91819       -2.04242
H          4.83286        1.57110       -3.18044
H          7.15566        0.93459       -2.44779
H          7.15717        2.30045       -1.29683
