74

C          2.48538       -0.39316        0.71190
C          1.04793       -0.32836        0.25275
C          0.72765       -0.16407       -1.10313
C         -0.60478       -0.07662       -1.52063
C         -1.69103       -0.15104       -0.62198
C         -1.34239       -0.32516        0.73362
C         -0.01332       -0.40962        1.16594
Al        -3.58908       -0.02043       -1.31543
C         -4.70362       -1.57320       -0.62366
C         -4.13996       -2.84641       -0.38803
C         -4.91223       -3.95281       -0.02411
C         -6.30999       -3.84855        0.13419
C         -6.88637       -2.58106       -0.07891
C         -6.10009       -1.48302       -0.44496
Si        -7.32708       -5.35415        0.57785
C         -6.71393       -6.04922        2.24908
C         -7.41434       -7.33441        2.70231
C         -6.93300       -7.86755        4.03444
F         -7.14063       -6.99050        5.05724
F         -7.58493       -9.02330        4.37751
F         -5.60236       -8.16119        4.03269
C         -9.16369       -4.92549        0.73846
C         -7.12273       -6.70670       -0.73498
C         -4.50515        1.71681       -0.76443
C         -4.97154        2.60947       -1.75409
C         -5.61606        3.80987       -1.44906
C         -5.81701        4.16829       -0.10681
C         -5.36230        3.31344        0.90870
C         -4.72312        2.11809        0.57115
C         -6.50711        5.45761        0.22413
C         -8.07452        5.50620        0.04789
C         -8.99136        4.51529        0.86122
C         -9.09277        4.58959        2.44140
C         -9.53220        5.94834        3.10445
C        -10.02948        5.80542        4.59377
F         -9.15022        5.11147        5.33955
F        -10.15453        7.04177        5.12233
F        -11.22915        5.20167        4.65718
F         -8.48278        6.80361        3.11765
F        -10.55457        6.50773        2.40530
F        -10.03007        3.65334        2.78049
F         -7.91160        4.21380        2.98530
F        -10.26044        4.69212        0.38619
F         -8.61437        3.24355        0.58146
F         -8.51671        6.77209        0.32185
F         -8.35272        5.25113       -1.26307
F         -6.25498        5.86441        1.51600
F         -6.06566        6.47961       -0.60052
H          3.11027       -0.95482        0.00155
H          2.57015       -0.87538        1.69642
H          2.92548        0.61429        0.80172
H          1.53554       -0.11053       -1.84116
H         -0.81027        0.04708       -2.58921
H         -2.13203       -0.40914        1.48877
H          0.20681       -0.54819        2.22997
H         -3.54410       -0.01841       -2.95454
H         -3.05846       -2.98063       -0.49680
H         -4.41430       -4.91660        0.13490
H         -7.96673       -2.44640        0.03725
H         -6.59919       -0.52056       -0.60114
H         -6.84409       -5.25985        3.00599
H         -5.62909       -6.21979        2.16792
H         -7.26964       -8.14892        1.97651
H         -8.49995       -7.18687        2.80817
H         -9.33420       -4.17272        1.52114
H         -9.76222       -5.81402        0.98812
H         -9.55558       -4.51988       -0.20506
H         -6.06643       -6.99180       -0.84408
H         -7.46445       -6.33804       -1.71271
H         -7.69833       -7.61398       -0.49787
H         -4.81953        2.35425       -2.80737
H         -5.95318        4.47506       -2.24611
H         -5.50153        3.58863        1.95480
H         -4.38074        1.47788        1.39019
