46

C          0.71898        0.76912       -0.05132
O          2.11058        0.53110       -0.04683
C          2.86042        1.74141        0.03501
C          4.34307        1.40264        0.06545
O          5.04228        2.62647        0.14133
C          6.47187        2.43652        0.26419
C          7.18452        3.74945        0.36844
As         9.19305        3.39979        0.85852
C          9.96435        3.14913       -1.43622
C          9.30268        3.41943       -2.79774
C          9.08078        4.90790       -3.25362
C         10.32381        5.83726       -3.51248
F         11.25914        5.24423       -4.27087
F          9.89845        6.94849       -4.16993
F         10.89516        6.25493       -2.36533
F          8.40878        4.86320       -4.44757
F          8.28721        5.56362       -2.36194
F          9.96729        2.81880       -3.86412
F          8.04478        2.86296       -2.78395
F         11.24837        3.72958       -1.53229
F         10.20120        1.77145       -1.46657
C          9.54466        5.46075        0.86172
C         10.97145        5.74847        1.31370
C         11.21891        7.23603        1.49487
O         11.11827        7.82450        2.57214
N         11.58086        7.91524        0.34735
H          0.22019       -0.20648       -0.12393
H          0.41176        1.39453       -0.91288
H          0.38605        1.27523        0.87656
H          2.58942        2.30346        0.95020
H          2.64298        2.39205       -0.83456
H          4.62107        0.83062       -0.84365
H          4.56332        0.75692        0.94057
H          6.83553        1.86096       -0.60857
H          6.66598        1.81488        1.16368
H          6.79102        4.35659        1.19610
H          7.14111        4.32125       -0.56473
H          8.88016        3.37487        2.40336
H         10.75644        3.15698        1.08438
H          8.97349        1.84043        0.70229
H          8.80704        5.87533        1.56412
H          9.33504        5.83886       -0.14571
H         11.68124        5.32405        0.58546
H         11.16471        5.26613        2.28361
H         11.43821        7.48051       -0.55650
H         11.51813        8.92637        0.38796
