58

C          5.17997        0.64528       -2.80822
S          4.90399       -0.17671       -1.20909
C          5.30050        1.21214       -0.06624
C          5.12242        0.84623        1.38199
As         5.38620        2.64988        2.48347
C          4.68426        1.86637        4.28662
C          3.52243        1.09527        4.38755
C          2.97701        0.76367        5.63482
C          3.58080        1.19797        6.82432
C          4.74827        1.97074        6.72337
C          5.28226        2.30091        5.47339
C          2.97183        0.88099        8.17003
C          7.40118        2.18731        2.92714
C          8.34869        3.14318        2.54616
C          9.71495        2.93942        2.75219
C         10.18701        1.75495        3.36060
C          9.22815        0.79745        3.74774
C          7.86100        1.01350        3.53178
Si        12.01690        1.48179        3.62055
C         12.74224        2.96315        4.58995
C         14.21620        2.80010        4.97723
C         14.82241        4.01100        5.65311
F         14.16923        4.36104        6.79635
F         16.12832        3.78740        6.00598
F         14.82552        5.11284        4.84860
C         12.33698       -0.10542        4.60301
C         12.93295        1.37258        1.96335
H          4.96900       -0.08564       -3.60023
H          6.22138        0.98417       -2.90736
H          4.50737        1.50653       -2.93280
H          4.63918        2.05566       -0.33302
H          6.33714        1.52533       -0.26902
H          5.84666        0.09241        1.71740
H          4.10008        0.50341        1.59085
H          5.61166        4.03351        3.27674
H          5.94661        3.36751        1.14588
H          3.86983        3.04432        2.09270
H          3.01166        0.76003        3.47956
H          2.06277        0.16266        5.68726
H          5.23839        2.32191        7.63787
H          6.17957        2.92735        5.41636
H          2.48518       -0.10539        8.17108
H          2.20358        1.62123        8.44995
H          3.73211        0.88706        8.96448
H          7.99736        4.06784        2.06922
H         10.42458        3.71343        2.43588
H          9.54965       -0.13199        4.22865
H          7.14281        0.25299        3.85516
H         12.12878        3.11667        5.49093
H         12.61223        3.86551        3.97134
H         14.84736        2.59820        4.09803
H         14.35467        1.95863        5.67260
H         11.86418       -0.06536        5.59484
H         13.41342       -0.28115        4.74550
H         11.92832       -0.97888        4.07527
H         12.75815        2.27707        1.36295
H         12.56185        0.51664        1.38186
H         14.01961        1.24992        2.08701
