13

O          1.01826        0.15515       -0.10826
C          2.26674        0.02162        0.01975
O          2.90792       -0.76149        0.77533
C          3.12025        0.97291       -0.89977
C          4.63776        0.84157       -0.77185
C          5.41689        1.79061       -1.69058
H          2.80450        2.00864       -0.67895
H          2.80511        0.78741       -1.94256
H          4.92326       -0.20262       -0.97628
H          4.92301        1.01186        0.27850
H          5.17062        1.61333       -2.75053
H          6.50869        1.67621       -1.58084
H          5.17188        2.84430       -1.47755
