56

C          8.12497       -2.18089       -5.16149
C          7.92724       -1.58516       -3.76584
C          8.44070       -2.49054       -2.64186
C          8.24210       -1.90451       -1.24141
C          8.76121       -2.80253       -0.11437
C          8.55218       -2.21097        1.28233
C          9.08662       -3.09089        2.41937
C          8.85124       -2.49147        3.81326
Si         9.50654       -3.47961        5.30084
C          8.96116       -2.59352        6.86880
C          7.59069       -2.46536        7.16693
C          7.14315       -1.78521        8.29865
C          8.06398       -1.20984        9.19115
C          9.43457       -1.33039        8.90720
C          9.87080       -2.00599        7.76784
C          7.54970       -0.44875       10.39682
S          7.95429        1.36424       10.01052
O          9.34185        1.64278       10.36730
O          7.49295        1.71709        8.67924
C          6.93704        2.46332       11.24603
F          6.55334        1.80465       12.34924
F          7.77178        3.46495       11.63090
F          5.88157        3.02586       10.65470
C          5.98130       -0.65847       10.63968
O          5.66349       -1.74525       11.14576
O          5.31087        0.30585       10.20313
I          8.67448       -1.03998       12.20523
C          8.79080       -5.23384        5.27009
C         11.39549       -3.58561        5.21957
H          7.74770       -1.51056       -5.94684
H          7.59760       -3.14168       -5.26114
H          9.19010       -2.36790       -5.36590
H          6.85646       -1.37686       -3.60148
H          8.43733       -0.60888       -3.70499
H          9.51396       -2.69659       -2.80327
H          7.93307       -3.46973       -2.70370
H          7.16835       -1.70320       -1.08015
H          8.74430       -0.92271       -1.18300
H          9.83690       -2.99887       -0.27151
H          8.26263       -3.78651       -0.17292
H          7.47554       -2.02790        1.44507
H          9.03667       -1.22027        1.33714
H         10.16572       -3.26234        2.25817
H          8.61167       -4.08548        2.35424
H          7.77038       -2.33289        3.97295
H          9.30105       -1.48474        3.87068
H          6.84139       -2.90517        6.50186
H          6.07569       -1.69823        8.49949
H         10.16037       -0.89068        9.59249
H         10.94590       -2.07417        7.58326
H          7.69315       -5.21607        5.33185
H          9.15917       -5.81255        6.12911
H          9.06955       -5.77259        4.35243
H         11.85547       -2.58705        5.22012
H         11.72054       -4.10372        4.30536
H         11.79831       -4.14187        6.07818
