31

N          1.46935       -0.66847        0.56408
C          2.73849       -0.44836       -0.17995
Ga         3.12605        1.51797       -0.60355
C          1.76134        2.28078       -1.95034
C          0.27292        2.33563       -1.56560
C          0.03220        3.18740       -0.30924
C         -0.61611        2.83805       -2.71993
C          4.99437        1.69184       -1.42672
C          5.39469        3.13807       -1.72972
C          6.82713        3.32185       -2.25980
H          1.12940       -1.62873        0.45912
H          0.73423       -0.06994        0.18747
H          2.78287       -1.02274       -1.13010
H          3.56955       -0.82169        0.44539
H          3.10356        2.39887        0.76321
H          1.86880        1.69733       -2.88417
H          2.09542        3.30745       -2.19992
H         -0.06303        1.30470       -1.33462
H          0.34629        4.22984       -0.48805
H          0.62351        2.81758        0.53910
H         -1.03300        3.20307       -0.02319
H         -0.34196        3.87237       -2.98918
H         -1.68983        2.83335       -2.45844
H         -0.48113        2.21843       -3.61959
H          5.05795        1.08454       -2.34913
H          5.71594        1.24884       -0.71501
H          5.27216        3.75104       -0.81848
H          4.69142        3.56967       -2.46460
H          7.56577        2.96267       -1.52486
H          7.06300        4.37773       -2.48372
H          6.98175        2.74083       -3.18356
