28

N          0.91492        0.64597        0.17298
C          2.34267        0.27067        0.13080
C          3.01118        0.48322        1.48633
C          4.49270        0.09306        1.49148
C          5.20195        0.32235        2.83590
B          6.77237       -0.12137        2.88598
S          7.87008        1.23811        2.01224
O          7.49448        2.61659        2.31413
O          9.29004        0.91280        1.97391
F          7.40112        1.07255        0.39532
C          7.44087       -0.38518        4.37009
C          7.34544        0.63183        5.48241
O          8.24294        0.94959        6.23728
O          6.10076        1.18989        5.67428
H          0.50849        0.58279       -0.76218
H          0.83667        1.62806        0.44721
H          2.91798        0.82302       -0.63875
H          2.39840       -0.79682       -0.14079
H          2.45855       -0.08830        2.25164
H          2.91681        1.54845        1.76852
H          5.02051        0.65634        0.70614
H          4.59212       -0.97118        1.21529
H          4.65405       -0.27010        3.59968
H          5.06824        1.38819        3.10862
H          6.99835       -1.09976        2.19204
H          8.49784       -0.66750        4.28560
H          6.90590       -1.28012        4.74121
H          5.54125        0.93695        4.91484
