43

N          2.16584       -0.12199       -0.47900
C          3.13070        0.81531        0.11111
Sb         4.37777        1.89657       -1.48701
C          2.75367        3.49119       -1.66507
C          3.08286        4.84572       -1.77534
C          2.09633        5.83743       -1.86655
C          0.73520        5.49925       -1.85398
C          0.39835        4.14092       -1.74312
C          1.39113        3.15819       -1.65054
C         -0.33723        6.55770       -1.97076
C          6.06551        0.34695       -1.32520
C          5.69549       -1.13505       -1.42269
C          5.42699       -1.62875       -2.85096
C          5.10996       -3.12583       -2.93162
C          4.86516       -3.63577       -4.35612
C          4.62547       -5.14659       -4.43436
H          2.41726       -1.08436       -0.24792
H          2.25525       -0.06482       -1.50924
H          3.84518        0.31501        0.78338
H          2.61937        1.61387        0.67277
H          3.39540        0.83730       -2.65687
H          5.23863        2.72187       -2.82737
H          5.20190        2.92062       -0.24664
H          4.13908        5.14217       -1.78524
H          2.38353        6.89233       -1.94411
H         -0.65878        3.85164       -1.72108
H          1.08664        2.11051       -1.54976
H          0.07134        7.56115       -1.78238
H         -1.15508        6.38545       -1.25413
H         -0.78973        6.57018       -2.97640
H          6.49293        0.57555       -0.33576
H          6.81553        0.62103       -2.08626
H          4.79765       -1.33867       -0.80958
H          6.49415       -1.77122       -0.98643
H          6.31311       -1.41350       -3.47594
H          4.59636       -1.04441       -3.27985
H          4.22132       -3.34662       -2.31254
H          5.94044       -3.70115       -2.48087
H          5.73080       -3.37013       -4.98726
H          4.00249       -3.10134       -4.78782
H          5.48965       -5.70621       -4.04347
H          4.45216       -5.48121       -5.46817
H          3.74834       -5.44198       -3.83809
