88

S          2.11085        1.89075       -0.54683
C          3.12891        0.35694       -0.53324
C          3.39888       -0.06672       -1.97611
C          4.22558       -1.32249       -2.14338
Nb         5.61183       -0.08307       -3.29309
C          4.57292        0.70261       -4.96865
C          3.72985       -0.10090       -5.78295
C          2.94148        0.43766       -6.79064
C          2.95580        1.82533       -7.04229
C          3.78045        2.64954       -6.25250
C          4.56018        2.09841       -5.24369
C          2.12791        2.41957       -8.12718
C          2.86257        2.81661       -9.46662
C          3.65156        1.72234      -10.28582
C          2.92811        0.47396      -10.93184
C          1.75656        0.64413      -11.98153
C          2.02048        1.45653      -13.30324
F          3.13286        1.02793      -13.92780
F          0.96857        1.26193      -14.13113
F          2.12769        2.77252      -13.07113
F          1.44335       -0.62561      -12.37601
F          0.66947        1.17792      -11.37838
F          3.91303       -0.22966      -11.56172
F          2.42782       -0.30927       -9.94461
F          4.25961        2.38205      -11.32141
F          4.62295        1.20843       -9.49378
F          1.96572        3.39637      -10.32386
F          3.79916        3.76293       -9.16315
F          1.08299        1.59611       -8.49711
F          1.55467        3.62083       -7.72344
C          7.79739        0.08120       -3.86173
C          8.29655        1.37853       -4.23485
C          9.64818        1.66979       -4.23963
C         10.63481        0.70129       -3.91198
C         10.15377       -0.59310       -3.59882
C          8.80224       -0.90344       -3.59781
Si        12.43335        1.03307       -4.21237
C         12.72545        1.01259       -6.10870
C         11.93780       -0.12721       -6.76585
C         12.21657       -0.44045       -8.22997
C         11.43090        0.34464       -9.34846
C         11.58346        1.90324       -9.54289
C         12.97672        2.57265       -9.87086
C         13.80186        2.17707      -11.16167
C         13.14314        2.35219      -12.58058
F         12.62569        3.58528      -12.72982
F         14.10763        2.18052      -13.51187
F         12.18386        1.44282      -12.80111
F         14.89619        2.99355      -11.14717
F         14.22817        0.89690      -11.05892
F         12.72387        3.90998       -9.96232
F         13.81518        2.37986       -8.82235
F         10.74258        2.24632      -10.56167
F         11.13579        2.51824       -8.41612
F         11.72758       -0.22816      -10.55241
F         10.10135        0.15698       -9.11305
F         13.55814       -0.36067       -8.53118
F         11.85291       -1.75373       -8.47108
C         12.99333        2.72945       -3.58763
C         13.53081       -0.30672       -3.44529
H          2.16964        2.14726        0.78083
H          2.58492       -0.43475       -0.00119
H          4.07927        0.55806       -0.02192
H          3.91167        0.84306       -2.44536
H          2.46120       -0.12146       -2.55221
H          3.69975       -2.15126       -2.62946
H          4.70440       -1.67501       -1.21719
H          6.17362       -1.76626       -3.41291
H          6.24000        1.05688       -2.04101
H          6.90878       -0.29643       -4.62826
H          3.68530       -1.18238       -5.61812
H          2.29762       -0.21201       -7.38315
H          3.79340        3.72699       -6.42375
H          5.16720        2.78185       -4.63987
H          7.59176        2.16772       -4.50984
H          9.95442        2.68454       -4.51568
H         10.86330       -1.39113       -3.35836
H          8.48117       -1.92214       -3.37303
H         13.80245        0.91417       -6.31476
H         12.41222        1.98947       -6.49987
H         10.85542        0.02736       -6.64881
H         12.15212       -1.08034       -6.25635
H         12.35229        3.52827       -3.98640
H         14.02850        2.94389       -3.89222
H         12.94026        2.77472       -2.49095
H         13.33231       -1.29845       -3.87591
H         13.36320       -0.37591       -2.36130
H         14.59252       -0.07550       -3.61434
