32

C          3.45129        0.57875        0.87690
C          4.15225       -0.68138        0.35137
C          3.13546       -1.75446       -0.07128
Nb         2.40297       -3.11054        1.45787
C          0.71358       -2.12304        2.58378
C         -0.06693       -2.74000        3.76698
F         -0.63628       -3.92389        3.42577
F          0.73559       -2.96645        4.83536
F         -1.08306       -1.93366        4.20888
F          1.16653       -0.87085        3.07566
F         -0.29101       -1.73960        1.65870
C          2.48133       -5.14808        0.58600
O          3.89169       -5.62764        0.25642
C          4.00010       -6.77829       -0.36767
F          3.45522       -7.85535        0.30310
F          3.41379       -6.81700       -1.62329
F          5.31955       -7.07390       -0.56082
C          5.12173       -0.32262       -0.78935
H          2.78866        0.35096        1.72224
H          2.83460        1.03329        0.08367
H          4.18375        1.33278        1.20609
H          4.76928       -1.08742        1.17756
H          3.63407       -2.53611       -0.68908
H          2.32248       -1.32901       -0.68922
H          3.78937       -3.94848        2.14105
H          0.86815       -3.93635        1.17941
H          2.83413       -2.81829        3.14082
H          1.92792       -5.22709       -0.36473
H          2.06061       -5.88542        1.28784
H          4.56917        0.09780       -1.64505
H          5.66179       -1.21207       -1.14565
H          5.86686        0.42358       -0.46674
