25

N          1.27494        0.10600       -0.42100
C          2.75502        0.02532       -0.25839
C          3.31020        1.17538        0.53335
C          2.90978        1.51282        1.82870
C          3.41695        2.73487        2.43954
C          2.88828        3.29311        3.58244
C          1.82137        2.67265        4.27767
C          1.40022        1.42776        3.81904
C          1.94319        0.79163        2.68004
C          1.60638       -0.62293        2.50102
O          2.34786       -1.53429        2.14955
O          0.29058       -0.98028        2.84294
C          4.33031        2.04218       -0.17347
H          0.93010       -0.72303       -0.91265
H          1.03660        0.92601       -0.98293
H          3.27764       -0.00357       -1.23730
H          2.93294       -0.94818        0.23449
H          4.24415        3.25194        1.95159
H          3.31388        4.22748        3.96317
H          1.40619        3.10523        5.18928
H          0.68608        0.86629        4.42991
H         -0.20740       -0.14572        2.87782
H          4.52866        1.65269       -1.18413
H          5.31093        2.08964        0.34413
H          4.00984        3.09757       -0.29304
