36

C          1.37275        1.24138       -0.35476
B          2.31564        0.21507        0.47237
S          3.45211       -0.78577       -0.77780
O          4.08465        0.06745       -1.79835
O          4.29675       -1.79520       -0.12515
C          2.33479       -1.92135       -1.98074
C          1.35223       -3.00850       -1.42074
C         -0.16008       -2.64340       -1.12483
C         -1.08939       -2.13723       -2.29896
F         -0.84304       -2.78035       -3.45707
F         -2.38054       -2.38321       -1.95773
F         -0.97451       -0.81747       -2.49866
F         -0.72626       -3.81110       -0.68002
F         -0.24700       -1.73492       -0.12987
F          1.29677       -4.06069       -2.30790
F          1.84171       -3.50036       -0.25196
F          1.63581       -1.12856       -2.85549
F          3.26899       -2.59639       -2.71116
C          3.39106        0.87639        1.48071
C          3.73574        0.23878        2.68796
C          4.62922        0.80523        3.59909
C          5.23358        2.04482        3.34203
C          4.90677        2.69033        2.14065
C          4.01086        2.11674        1.23495
C          6.22708        2.64592        4.30741
H          0.66067        0.74745       -1.03023
H          1.94102        1.96173       -0.96376
H          0.77350        1.82543        0.36388
H          1.72166       -0.69669        1.02303
H          3.28576       -0.73155        2.91060
H          4.86376        0.27701        4.52879
H          5.36366        3.65815        1.91137
H          3.78886        2.64715        0.30599
H          6.00295        2.36122        5.34597
H          6.23081        3.74420        4.25049
H          7.25396        2.30567        4.09252
