47

N          3.67347        2.12714       -2.13327
C          3.93837        1.07629       -1.12555
C          4.23668        1.67474        0.24763
C          4.52158        0.61645        1.32481
B          5.03082        1.13765        2.80519
C          3.90715        1.99341        3.63761
C          2.49775        1.37405        3.93364
C          2.47373       -0.02108        4.65901
C          1.08751       -0.40731        5.29975
F          0.07009       -0.26696        4.42542
F          1.12654       -1.70948        5.68209
F          0.81361        0.32460        6.39753
F          2.76744       -1.00881        3.77335
F          3.37410       -0.06492        5.67858
F          1.75542        2.23198        4.72285
F          1.80207        1.22298        2.76505
F          4.36617        2.37385        4.91697
F          3.57000        3.22042        3.02724
C          6.41627        2.02534        2.65500
C          7.25363        2.34521        3.91201
C          7.55209        1.14279        4.81893
C          8.32303        0.02634        4.11860
N          8.58380       -1.06690        5.04881
C          9.40149       -2.12995        4.75371
N         10.00404       -2.39184        3.63993
N          9.57938       -3.00617        5.84790
H          3.64906        1.72012       -3.07034
H          4.45597        2.78583       -2.13235
H          4.77831        0.40807       -1.40782
H          3.03889        0.44046       -1.06000
H          3.39189        2.31579        0.54575
H          5.10870        2.34826        0.14786
H          5.32631       -0.04443        0.94599
H          3.63604       -0.03837        1.40841
H          5.23051        0.13459        3.49835
H          6.20317        2.98806        2.15546
H          7.05984        1.47990        1.93708
H          6.72548        3.09251        4.52346
H          8.21616        2.81260        3.62353
H          6.60179        0.73118        5.19097
H          8.13775        1.48007        5.69492
H          9.27553        0.42482        3.71544
H          7.73210       -0.35240        3.27040
H          8.46941       -0.84464        6.03270
H          9.87520       -1.62619        2.97324
H          8.70455       -3.23372        6.31733
H         10.04590       -3.85056        5.52440
