30

C          0.63993        1.87701        0.94151
O          2.03013        1.78377        0.72644
C          2.61051        0.69625        1.44324
C          4.11780        0.69139        1.27923
O          4.69142        1.70102        2.07173
C          6.14326        1.65387        2.05017
C          6.71976        2.74554        2.92525
B          8.33236        2.68350        3.18419
S          9.31067        3.21860        1.49984
O         10.78090        3.14561        1.71858
O          8.81760        2.54318        0.26444
C          8.99180        5.00170        1.20538
N          8.85979        1.33591        3.61891
H          0.27380        2.73091        0.35621
H          0.39917        2.04485        2.01026
H          0.10762        0.96119        0.61029
H          2.19371       -0.26160        1.06612
H          2.36348        0.77785        2.52031
H          4.37578        0.81845        0.20646
H          4.49170       -0.31129        1.58583
H          6.49807        1.75173        1.00867
H          6.44899        0.65284        2.41883
H          6.24905        2.66916        3.92216
H          6.41662        3.72588        2.51894
H          8.70885        3.59121        3.92357
H          9.32573        5.56814        2.08243
H          7.92182        5.15446        1.01941
H          9.58112        5.26817        0.31875
H          8.67273        0.58612        2.95160
H          9.87000        1.34975        3.75923
