72

C          0.60509        0.12675       -0.18073
C          2.13165        0.17943       -0.28668
C          2.77172        1.20091        0.65960
C          4.29467        1.29797        0.53067
C          4.93356        2.29852        1.49919
C          6.44640        2.45142        1.31814
C          7.08522        3.47140        2.26862
C          8.58649        3.68904        2.01622
Si         9.36576        5.17710        2.90802
C          8.65498        6.77904        2.25916
C          9.00471        8.00712        2.85476
C          8.52604        9.22444        2.36277
C          7.67683        9.29596        1.23941
C          7.31359        8.05800        0.66420
C          7.78749        6.84102        1.14694
Ta         7.08438       11.16084        0.21769
C          7.94028       13.18312        0.23707
C          7.18031       14.36280        0.39221
C          7.68415       15.62413        0.06073
C          8.99384       15.77597       -0.42213
C          9.77513       14.61977       -0.56144
C          9.25678       13.35855       -0.25024
C          9.55146       17.13607       -0.76641
C          5.63486       11.39921       -1.42484
C          6.31454       12.08786       -2.61913
C          5.46004       12.28562       -3.86567
O          4.47925       11.65804       -4.18636
O          5.91153       13.28975       -4.70882
C          9.06503        5.02211        4.77406
C         11.23846        5.12388        2.61246
H          0.17646       -0.62836       -0.85530
H          0.15482        1.09702       -0.43895
H          0.28450       -0.12122        0.84272
H          2.42002        0.41687       -1.32498
H          2.55183       -0.81990       -0.07950
H          2.50738        0.94526        1.70149
H          2.32882        2.19539        0.47431
H          4.55261        1.58159       -0.50526
H          4.74089        0.29940        0.68818
H          4.71419        1.99329        2.53801
H          4.45618        3.28564        1.36930
H          6.65485        2.76003        0.27813
H          6.93852        1.46985        1.44458
H          6.92758        3.14816        3.31204
H          6.54645        4.42849        2.17120
H          8.76389        3.83355        0.93542
H          9.15368        2.78155        2.28832
H          9.66755        8.01946        3.72801
H          8.81924       10.14738        2.87303
H          6.65242        8.04032       -0.21081
H          7.48272        5.92237        0.63594
H          6.90743       11.61948        1.93940
H          5.57460       10.53171        0.92546
H          8.42886       10.35866       -0.73577
H          6.15614       14.29874        0.77480
H          7.05279       16.51093        0.17715
H         10.80036       14.70706       -0.93612
H          9.89295       12.48298       -0.41127
H          8.75143       17.88195       -0.87363
H         10.11992       17.11206       -1.70821
H         10.23902       17.50077        0.01414
H          4.75640       11.98409       -1.10192
H          5.24620       10.41234       -1.72709
H          7.19465       11.50578       -2.95521
H          6.72056       13.07297       -2.32607
H          6.68273       13.70670       -4.28513
H          7.98917        5.03303        4.99760
H          9.52185        5.86540        5.31160
H          9.49415        4.09147        5.17463
H         11.45874        5.16222        1.53613
H         11.69379        4.21222        3.02772
H         11.72350        5.99348        3.07893
