37

C          1.00583       -2.03373        1.96138
C          2.40282       -1.54012        2.37424
C          3.18428       -0.86201        1.24428
In         5.31216       -0.34806        1.76311
C          6.45069        0.18772       -0.24788
C          6.88003       -0.83151       -1.33309
C          5.74294       -1.53735       -2.13845
F          4.90746       -2.22079       -1.33147
F          5.01529       -0.66426       -2.86456
F          6.28765       -2.43227       -3.00949
F          7.69854       -0.26530       -2.29649
F          7.61065       -1.83205       -0.74055
F          5.78157        1.20539       -0.95623
F          7.67798        0.76779        0.13026
C          6.35147       -2.15850        2.60687
C          5.95057       -3.49674        1.97702
C          6.65957       -4.72789        2.56884
C          6.24457       -6.04247        1.91141
N          6.95451       -7.19250        2.51016
H          0.46674       -2.51623        2.79487
H          1.08218       -2.76705        1.14282
H          0.38632       -1.20057        1.59392
H          2.97203       -2.40263        2.76389
H          2.29858       -0.84907        3.22927
H          2.65934        0.05111        0.91738
H          3.21384       -1.53168        0.36990
H          5.54171        1.15123        2.68464
H          6.15321       -2.18030        3.69267
H          7.43746       -2.00117        2.49476
H          6.14842       -3.47457        0.89192
H          4.85998       -3.64814        2.07256
H          6.46702       -4.79031        3.65311
H          7.75233       -4.59826        2.45589
H          6.39925       -5.95807        0.81678
H          5.16436       -6.20370        2.06470
H          7.96211       -7.05406        2.40252
H          6.73292       -8.04776        1.99639
