19

N          1.61914        0.85532       -0.82876
Ga         2.71329       -0.01811        0.51846
S          3.50660       -1.87649       -0.92286
O          3.19820       -3.22471       -0.40518
O          3.15156       -1.58725       -2.33170
C          5.43761       -1.88879       -0.96726
F          5.93166       -0.76091       -1.52004
F          5.93697       -1.98657        0.29461
F          5.89956       -2.94403       -1.67872
C          4.15864        1.33353        0.90587
C          4.46254        2.36507       -0.16422
O          5.58479        2.81364       -0.35564
O          3.41357        2.82344       -0.87855
H          0.61954        0.81925       -0.62891
H          1.75295        0.38772       -1.73064
H          1.96506       -0.74737        1.69321
H          5.10309        0.90466        1.25947
H          3.71655        1.88290        1.75649
H          2.60957        2.17288       -0.82580
