9

F          1.02522        0.18152        0.09399
N          2.49331       -0.03136       -0.02745
S          2.65277       -1.41312       -0.83981
O          2.32015       -2.66987       -0.15134
O          2.32049       -1.42193       -2.27286
C          4.55542       -1.28306       -0.76403
F          5.05844       -0.19410       -1.39329
F          5.05980       -1.30046        0.49301
F          5.05199       -2.37772       -1.40652
