26

N          1.07653        0.29432       -0.79398
C          2.51081        0.13646       -0.43548
C          3.16981       -0.94867       -1.28950
C          4.63859       -1.18209       -1.08163
C          5.02965       -1.54405        0.34125
C          4.29606       -2.70745        1.09768
C          4.57377       -4.08551        0.48781
C          4.65645       -2.70267        2.58765
N          5.19531       -2.12614       -2.05583
H          0.58014        0.77157       -0.03772
H          0.67610       -0.64871       -0.83722
H          2.64774       -0.10924        0.63569
H          3.02579        1.09397       -0.61545
H          2.98372       -0.70193       -2.34962
H          2.53080       -1.90017       -1.12321
H          4.90973       -0.65252        0.99081
H          6.11158       -1.77928        0.35142
H          3.20673       -2.52426        1.01753
H          5.65783       -4.26676        0.40586
H          4.15247       -4.17339       -0.52370
H          4.13821       -4.89399        1.10524
H          5.73924       -2.87100        2.72547
H          4.12442       -3.49383        3.14741
H          4.41491       -1.73508        3.05514
H          5.20671       -1.68706       -2.97736
H          4.59549       -2.98267       -2.19542
