28

C          4.67124       -0.27737       -0.47077
C          4.31828        0.35627        0.88753
C          3.01384       -0.19770        1.48859
Al         2.17922        0.80095        3.05265
C          1.55756        2.62782        2.37996
C          0.81049        3.44657        3.43650
C          0.25249        4.82362        3.07023
O         -0.44034        5.50517        3.83367
N          0.59078        5.26759        1.82083
O          3.33874        1.07648        4.40180
C          5.49083        0.19449        1.86670
H          3.85732       -0.13017       -1.19763
H          4.81852       -1.36463       -0.35791
H          5.59626        0.14536       -0.90256
H          4.18702        1.44193        0.70901
H          3.17685       -1.25907        1.76566
H          2.23652       -0.22529        0.69804
H          0.87094       -0.03594        3.62952
H          0.91146        2.44861        1.49905
H          2.44917        3.17811        2.02215
H          1.45476        3.61431        4.31745
H         -0.05152        2.88228        3.83284
H          1.07959        4.63363        1.19705
H          0.19083        6.13321        1.48316
H          3.07857        0.64855        5.22612
H          5.69358       -0.87718        2.03543
H          5.25153        0.64033        2.84242
H          6.41589        0.65092        1.47592
