24

N          3.40874        0.50054        1.46536
C          3.05034       -0.37165        0.32979
C          3.09296        0.38319       -0.99956
C          4.45692        0.97677       -1.37619
C          4.44680        1.69501       -2.74021
Ta         3.27866        3.57184       -2.92101
F          3.71590        4.05219       -1.06716
C          4.11041        5.57850       -3.31963
H          3.03801        0.12186        2.33746
H          2.97524        1.41767        1.33636
H          2.04356       -0.82455        0.44082
H          3.77272       -1.20833        0.30424
H          2.33677        1.18931       -0.98268
H          2.76835       -0.30931       -1.79611
H          5.20071        0.15285       -1.36314
H          4.77229        1.67978       -0.58969
H          4.11575        1.00439       -3.54133
H          5.47872        1.97630       -3.02211
H          4.06320        3.32110       -4.53228
H          1.58594        3.16349       -2.41021
H          2.12203        3.99356       -4.25109
H          5.18290        5.57060       -3.04905
H          3.61363        6.30878       -2.65376
H          4.01270        5.90781       -4.36106
