42

C          0.61128        0.16236        0.66307
O          2.01562        0.00981        0.64108
C          2.68194        1.18132        1.10416
C          4.18597        0.94927        1.05676
O          4.79617        2.14826        1.47805
C          6.23123        2.05428        1.55033
C          6.73902        3.39696        2.07247
C          8.26562        3.68852        2.06020
C          8.99221        2.67400        2.94999
C          8.47161        2.45666        4.42467
F          8.36544        3.60926        5.10366
F          7.26980        1.82333        4.47929
F          9.34736        1.66021        5.09948
F          8.95055        1.36891        2.39797
F         10.32180        2.93967        3.12233
C          8.82014        3.67945        0.57543
C          8.57161        5.00030       -0.20576
C          7.13717        5.49625       -0.42356
C         10.32062        3.36418        0.41435
C          8.50943        5.20925        2.67951
O          9.70436        5.57667        2.67991
O          7.46528        5.81336        3.00796
H          0.17293       -0.77369        0.29201
H          0.28052        0.99687        0.01399
H          0.23633        0.35437        1.68750
H          2.37413        1.41826        2.14101
H          2.42175        2.05144        0.47046
H          4.49230        0.67638        0.02530
H          4.45928        0.10139        1.71764
H          6.62505        1.82477        0.54116
H          6.50082        1.21201        2.20944
H          6.35035        3.56023        3.08444
H          6.26375        4.17940        1.47512
H          8.27008        2.88424        0.04092
H          9.02845        4.84041       -1.19839
H          9.15861        5.79264        0.28329
H          6.48225        4.70747       -0.82788
H          7.14035        6.32358       -1.15082
H          6.69623        5.87995        0.50533
H         10.92145        4.10624        0.95592
H         10.58041        3.41123       -0.65507
H         10.58706        2.36464        0.77642
