34

C          7.73593       -0.40570        4.03023
O          7.02226       -0.26577        2.82025
C          7.03519        1.08474        2.35410
C          6.42653        1.13475        0.95976
O          6.32482        2.50102        0.60808
C          6.13880        2.72862       -0.79359
C          6.63818        4.12621       -1.17580
C          8.12710        4.36723       -1.08662
S          9.09147        3.57673       -2.15303
O          8.37131        3.14241       -3.35315
O         10.44646        4.11571       -2.26473
F          9.47042        1.99735       -1.50560
C          8.72242        5.29681       -0.06868
C          8.62347        4.91592        1.42778
S          9.89820        3.70368        1.93722
C          9.56865        3.69958        3.72117
H          7.68949       -1.46464        4.31945
H          7.29325        0.20638        4.84213
H          8.79607       -0.10859        3.91576
H          8.06792        1.47661        2.30600
H          6.45035        1.73002        3.04130
H          5.43421        0.63494        0.95825
H          7.08174        0.59731        0.25022
H          5.06024        2.62234       -1.04253
H          6.70070        1.97610       -1.37266
H          6.12810        4.86314       -0.52935
H          6.26793        4.30257       -2.20393
H          8.21258        6.28236       -0.14235
H          9.77577        5.48750       -0.32458
H          7.63435        4.48715        1.64993
H          8.77261        5.81610        2.05033
H         10.28535        3.00843        4.18514
H          8.54953        3.34816        3.94221
H          9.70731        4.69883        4.16116
