33

C          4.55180        0.59420       -0.34201
C          4.04083       -0.71087        0.30053
C          3.22958       -1.56667       -0.68807
In         2.05895       -3.26794        0.20424
C          0.90486       -2.49229        2.00075
C         -0.42151       -3.19760        2.26980
C         -1.14158       -2.66659        3.53224
C         -2.45119       -3.35706        3.84427
C         -3.21170       -2.80598        5.08881
F         -2.46266       -2.93526        6.21043
F         -3.50392       -1.49137        4.93430
F         -4.37773       -3.46286        5.29628
F         -3.34097       -3.25857        2.79317
F         -2.26974       -4.70408        4.08549
O          3.55843       -4.49532        1.08900
C          5.21858       -1.49313        0.90092
H          3.71958        1.19711       -0.73697
H          5.22517        0.36640       -1.18556
H          5.11378        1.21797        0.37590
H          3.37798       -0.41795        1.13739
H          3.90545       -1.96544       -1.46614
H          2.49876       -0.92686       -1.21453
H          1.04843       -4.25154       -0.89576
H          0.74163       -1.40621        1.88139
H          1.58775       -2.61981        2.85826
H         -0.26091       -4.28100        2.38964
H         -1.09790       -3.08534        1.40766
H         -1.34804       -1.59104        3.41913
H         -0.48757       -2.77918        4.41070
H          3.15069       -5.31080        1.41508
H          5.94240       -1.75294        0.10950
H          4.88547       -2.43517        1.35994
H          5.75515       -0.89407        1.65606
