57

S          5.05581        6.52152       -0.26237
C          4.57387        4.80887       -0.72545
C          5.25379        3.82550        0.22420
C          4.91708        2.36058       -0.13275
C          5.68801        1.32239        0.65794
S          4.79902        0.44998        1.79659
O          3.36235        0.51762        1.53094
O          5.40451       -0.82914        2.16235
C          4.91133        1.42453        3.46769
C          4.21856        0.88993        4.76456
C          4.68530       -0.45571        5.44838
C          6.19852       -0.63176        5.83398
F          6.65164        0.43432        6.52534
F          6.30708       -1.72244        6.63478
F          6.97750       -0.82764        4.76575
F          3.99153       -0.52161        6.63168
F          4.31884       -1.51559        4.69818
F          4.34481        1.86278        5.73159
F          2.88962        0.73205        4.52017
F          6.23204        1.63371        3.77021
F          4.34656        2.65712        3.25225
C          7.10419        1.13486        0.45062
C          7.74817        1.81033       -0.63391
C          9.10467        1.68848       -0.89447
C          9.92373        0.88259       -0.08565
C          9.31644        0.19359        0.98243
C          7.96152        0.30847        1.23998
C         11.38241        0.77359       -0.35415
C         12.29043        2.00576        0.03069
C         12.33308        2.51790        1.52098
C         12.91610        1.61950        2.68912
C         14.39259        1.08634        2.56495
C         15.01384        0.58992        3.92698
F         14.19300       -0.26956        4.55736
F         16.17461       -0.04772        3.65987
F         15.28487        1.61880        4.74969
F         14.42358        0.03682        1.71013
F         15.21262        2.06498        2.09821
F         12.86729        2.41025        3.80449
F         12.09778        0.56082        2.89129
F         13.07770        3.66500        1.50936
F         11.07571        2.84221        1.90956
F         13.58706        1.75529       -0.33738
F         11.86252        3.07879       -0.69746
F         11.94592       -0.32046        0.26962
F         11.63612        0.62249       -1.71627
H          4.33744        7.16478       -1.21344
H          4.88480        4.62303       -1.76358
H          3.48043        4.71682       -0.66439
H          4.93551        4.02641        1.25705
H          6.34337        3.98095        0.19349
H          5.10067        2.20522       -1.21304
H          3.84184        2.19108        0.01188
H          7.16147        2.44142       -1.29979
H          9.53287        2.22045       -1.74511
H          9.91936       -0.45194        1.62139
H          7.53958       -0.25862        2.06452
