40

O          1.23188        0.78199       -0.03145
B          2.34341       -0.24711       -0.09622
C          3.14968       -0.34584        1.34148
C          2.27776       -0.81732        2.50633
C          3.04531       -0.88070        3.83888
C          2.23999       -1.38891        5.01325
C          3.01681       -1.44927        6.36410
F          4.10065       -2.25729        6.26402
F          3.45068       -0.21794        6.72922
F          2.24387       -1.92543        7.36949
F          1.13108       -0.60345        5.25688
F          1.77526       -2.67200        4.79720
C          3.38663        0.18218       -1.29045
C          2.74763        0.22324       -2.68092
C          3.65840        0.70183       -3.82391
C          4.81712       -0.25383       -4.10625
N          5.66378        0.25399       -5.18315
C          6.73979       -0.45809       -5.66801
N          7.23978       -1.56009       -5.21668
N          7.32376        0.14252       -6.80509
H          0.40923        0.32489        0.17909
H          1.86265       -1.38242       -0.35426
H          3.57068        0.65024        1.59266
H          4.01484       -1.03174        1.24184
H          1.86660       -1.81350        2.27470
H          1.41845       -0.13605        2.61491
H          3.42457        0.11894        4.10291
H          3.92233       -1.53898        3.73538
H          4.24714       -0.51404       -1.28359
H          3.80343        1.18752       -1.06656
H          1.86684        0.88427       -2.63233
H          2.35372       -0.77961       -2.93155
H          4.07186        1.69468       -3.57331
H          3.07203        0.82325       -4.75657
H          4.41364       -1.25366       -4.36071
H          5.42940       -0.37153       -3.19945
H          5.18414        0.83446       -5.86556
H          6.65285       -1.94566       -4.47213
H          7.45906        1.14598       -6.69846
H          8.20249       -0.32407       -7.01770
