50

C          5.94344        3.61574        2.53976
C          5.51579        2.15111        2.44626
C          4.57696        1.84204        1.26897
C          5.24038        1.91077       -0.11145
Ta         5.91324        3.64088       -1.19249
S          4.11352        5.29053       -1.61028
O          3.24097        5.65684       -2.73511
O          3.62080        4.19722       -0.67007
C          3.83289        6.81632       -0.41737
C          4.52122        8.16878       -0.79332
C          4.19628        8.78093       -2.20357
C          4.60195       10.29445       -2.36268
F          3.79187       11.10309       -1.65249
F          5.87437       10.51094       -1.97832
F          4.48938       10.63821       -3.66552
F          4.87996        8.09071       -3.15045
F          2.86732        8.71119       -2.46403
F          4.15888        9.09994        0.15171
F          5.86807        8.00097       -0.71593
F          2.48863        7.01949       -0.33302
F          4.28325        6.50646        0.82855
C          8.11091        3.42647       -0.77746
C          8.72352        2.18810       -0.46323
C         10.09340        2.06230       -0.21276
C         10.94302        3.17188       -0.28931
C         10.37285        4.40514       -0.60617
C          8.99214        4.52993       -0.82189
C         11.23618        5.63558       -0.64592
F         12.56506        5.34827       -0.78653
F         10.90997        6.47410       -1.67050
F         11.13031        6.38082        0.49998
C         10.69793        0.73497        0.15034
F          9.82041       -0.30106        0.07157
F         11.75812        0.40806       -0.65514
F         11.19299        0.72262        1.43087
H          6.61607        3.78439        3.39366
H          5.07155        4.27605        2.65533
H          6.48371        3.94859        1.63812
H          5.00434        1.86612        3.38164
H          6.40899        1.50591        2.37958
H          3.72413        2.53961        1.29004
H          4.15210        0.83330        1.42349
H          4.51076        1.59441       -0.89036
H          6.08747        1.19829       -0.17378
H          6.37311        5.14060       -0.35912
H          6.85905        3.00992       -2.55185
H          5.10212        3.55648       -2.76927
H          8.12264        1.27811       -0.42233
H         12.01260        3.07632       -0.10898
H          8.59306        5.52557       -1.02870
