26

C          1.09823        0.18124        0.67154
C          2.47544       -0.42832        0.97384
C          3.60014        0.60730        1.03370
Ta         5.67021        0.31386        1.49412
S          5.79793       -1.34323       -0.46070
O          5.01325       -2.54896       -0.15436
O          5.54080       -0.72735       -1.76718
F          7.36451       -1.94020       -0.62940
C          6.26952        2.32141        2.17679
O          6.20596        3.35251        1.08581
C          6.08354        4.61308        1.46012
F          4.92591        4.88863        2.16385
F          7.10349        5.07175        2.26619
F          6.06306        5.41057        0.35996
H          0.31424       -0.59106        0.62908
H          1.10683        0.70474       -0.29649
H          0.80819        0.91558        1.43953
H          2.72181       -1.18311        0.21270
H          2.42431       -0.97439        1.93064
H          3.37639        1.37800        1.81109
H          3.67670        1.17069        0.07699
H          6.36972       -1.20417        2.07670
H          5.94982        0.27439        3.25612
H          6.84464        0.91948        0.32285
H          7.28291        2.35984        2.60476
H          5.56135        2.64673        2.95973
