35

C          0.99144       -0.77104        2.04180
C          2.35851       -0.23585        2.50486
C          3.41941       -0.15601        1.40452
In         5.47871        0.57436        2.00811
C          6.64969        0.70361        0.03225
C          7.50080       -0.53245       -0.26648
C          8.29543       -0.61180       -1.57605
O          8.84863       -1.64244       -1.97224
N          8.38325        0.56307       -2.27224
C          6.50114       -1.09252        3.16364
C          5.58005       -2.03972        3.93722
C          6.30993       -3.19156        4.63715
N          5.37144       -4.06207        5.38174
H          0.25220       -0.80317        2.86160
H          1.08912       -1.79190        1.63896
H          0.57641       -0.14268        1.23744
H          2.71963       -0.87651        3.32802
H          2.21307        0.76293        2.95338
H          3.05892        0.49247        0.58538
H          3.56258       -1.15714        0.95727
H          5.45460        2.15218        2.85385
H          7.27088        1.61444        0.07958
H          5.89277        0.85250       -0.75779
H          6.89740       -1.45533       -0.24849
H          8.25327       -0.68964        0.52653
H          7.80309        1.34212       -1.97595
H          8.81760        0.55495       -3.18637
H          7.24692       -0.65204        3.84801
H          7.07242       -1.67573        2.41986
H          4.81650       -2.47500        3.26990
H          5.01624       -1.47711        4.70658
H          7.10745       -2.76228        5.27770
H          6.81485       -3.81343        3.87875
H          4.83419       -3.48447        6.03295
H          5.88829       -4.72932        5.95806
