20

N          0.82950       -0.20168       -0.47745
C          2.20528        0.05468       -0.03410
C          2.67649       -0.85023        1.07355
C          2.35091       -0.50167        2.54427
C          0.85469       -0.31786        2.82809
C          2.95204       -1.55006        3.49388
N          3.09709       -0.15845       -1.16809
H          0.16231        0.03638        0.25824
H          0.69095       -1.24537       -0.64071
H          3.77760       -0.92158        1.00667
H          2.28138       -1.90552        0.88353
H          2.84218        0.46686        2.74709
H          0.28311       -1.21256        2.52678
H          0.46199        0.54206        2.26651
H          0.67119       -0.13902        3.90169
H          2.49318       -2.53814        3.32491
H          2.79448       -1.28152        4.55230
H          4.03503       -1.66020        3.32482
H          2.71315        0.37562       -1.95118
H          3.02404       -1.16424       -1.49711
