35

C          6.01500        0.40723        4.36657
O          5.83059        0.04304        3.01609
C          6.15237        1.11762        2.13253
C          5.97689        0.65687        0.69184
O          6.21055        1.78321       -0.11500
C          6.25882        1.48757       -1.52121
C          6.87127        2.67801       -2.26738
C          8.36344        2.49252       -2.44415
C          8.74050        1.59290       -3.61489
C          8.15974        1.80472       -5.04904
C          8.88911        2.85363       -5.89472
C          8.25472        3.05781       -7.26662
N          8.98180        4.08788       -8.04159
Cl         9.05973        4.22838       -2.78363
H          5.75238       -0.46351        4.98281
H          5.36687        1.25932        4.65443
H          7.06541        0.69146        4.57454
H          7.19714        1.44802        2.28705
H          5.49190        1.98569        2.32648
H          4.95350        0.24442        0.54973
H          6.69702       -0.15586        0.46411
H          5.22420        1.27365       -1.87192
H          6.87301        0.57994       -1.67360
H          6.68523        3.57079       -1.65219
H          6.25537        2.84308       -3.20239
H          8.42994        0.57652       -3.29959
H          9.84207        1.54204       -3.69459
H          7.09296        2.08526       -4.96929
H          8.17627        0.83820       -5.59343
H          9.94664        2.56452       -6.02318
H          8.89450        3.80919       -5.34674
H          7.18224        3.30404       -7.12401
H          8.28875        2.11578       -7.84296
H          9.05622        4.93018       -7.46523
H          8.43764        4.35855       -8.86348
