48

S          3.22542        0.50871        3.65884
C          3.61449        0.15825        1.88542
C          4.28694       -1.21040        1.74344
C          4.64646       -1.52826        0.29013
Ga         5.46709       -3.36255       -0.10074
C          4.17529       -4.79385        0.60711
C          2.78367       -4.65102        0.42649
C          1.87180       -5.63242        0.83322
C          2.31935       -6.81440        1.43749
C          3.69058       -6.98110        1.62534
C          4.59624       -5.98489        1.21907
C          4.22178       -8.24096        2.24847
F          3.23877       -9.08063        2.69052
F          4.98210       -8.97143        1.37375
F          5.02823       -7.99275        3.32441
C          0.39592       -5.47095        0.60389
F          0.04037       -4.21050        0.24143
F         -0.07009       -6.30119       -0.38772
F         -0.34374       -5.78075        1.71618
C          7.35540       -3.68275        0.63737
C          7.91891       -2.54589        1.44464
O          9.29482       -2.81083        1.83604
C          9.84811       -1.76608        2.60097
C         11.28082       -2.10196        2.96706
O         12.13440       -1.91307        1.84151
C         13.45264       -2.34934        2.09224
H          2.64834        1.71904        3.47346
H          4.27858        0.94894        1.50956
H          2.67770        0.18078        1.31161
H          3.61326       -1.98333        2.15122
H          5.19111       -1.22948        2.37520
H          5.34056       -0.76266       -0.10000
H          3.74074       -1.45540       -0.33902
H          5.48634       -3.54748       -1.70007
H          2.39430       -3.74721       -0.04869
H          1.61466       -7.58082        1.75661
H          5.66366       -6.15590        1.38764
H          8.00016       -3.86315       -0.23673
H          7.37236       -4.60382        1.24345
H          7.33019       -2.37497        2.36943
H          7.90637       -1.59671        0.87092
H          9.27301       -1.61360        3.54091
H          9.82711       -0.80348        2.04678
H         11.32962       -3.15465        3.30869
H         11.61432       -1.45274        3.80378
H         14.03399       -2.17716        1.17667
H         13.48692       -3.42837        2.34055
H         13.92308       -1.78879        2.92612
