31

N          1.99355        0.13325       -0.09209
Nb         3.91572        0.17282       -0.62197
C          4.28427        2.27461       -1.27435
O          4.32339        3.27775       -0.10937
C          4.24085        4.54852       -0.40905
F          3.05501        4.93113       -1.02183
F          4.32662        5.30180        0.73207
F          5.23078        5.01814       -1.25370
C          4.85355       -1.35400        0.77879
C          6.34095       -1.67108        0.66225
C          6.81634       -2.70061        1.71326
C          8.28376       -3.05952        1.63063
C          8.76791       -4.09645        2.69069
F          8.56953       -3.63338        3.94888
F          8.09135       -5.26504        2.56877
F         10.08700       -4.37160        2.55905
F          8.60691       -3.60560        0.40454
F          9.09105       -1.95316        1.79728
H          1.30837       -0.54742       -0.41590
H          1.56392        0.76792        0.57981
H          3.99719        0.40649       -2.39956
H          4.50472       -1.20476       -1.57190
H          5.06419        0.96088        0.46594
H          3.46496        2.62943       -1.92033
H          5.23299        2.41841       -1.81436
H          4.26964       -2.28527        0.62385
H          4.63514       -1.00395        1.80780
H          6.93058       -0.74826        0.78094
H          6.56153       -2.05961       -0.34435
H          6.24109       -3.63366        1.61052
H          6.62688       -2.31325        2.72614
