30

C          5.24870       -0.37587        0.50622
C          4.66780       -1.32509       -0.54715
C          3.12897       -1.22816       -0.67953
C          2.56103       -1.86753       -1.99069
S          3.23295       -0.78966       -3.38437
O          3.00282        0.61681       -3.05904
O          4.58070       -1.19998       -3.75841
C          2.26198       -1.02862       -5.05572
F          0.93098       -1.20485       -4.93100
F          2.45253        0.13798       -5.73150
F          2.76781       -2.01181       -5.80115
C          2.99219       -3.37733       -2.33142
O          2.69096       -3.70602       -3.50324
O          3.48811       -4.03544       -1.39036
C          1.01976       -1.90283       -2.00454
N          0.35293       -0.60116       -1.84566
C          2.45491       -1.84455        0.56410
H          6.34504       -0.46144        0.54036
H          4.87594       -0.58373        1.52110
H          5.00711        0.67350        0.27123
H          4.92227       -2.37139       -0.32518
H          5.13978       -1.09881       -1.51173
H          2.87433       -0.15283       -0.71321
H          0.75683       -2.63595       -1.21760
H          0.70029       -2.34904       -2.95204
H          0.63919       -0.14979       -0.97532
H         -0.65572       -0.74536       -1.78278
H          2.60558       -2.93223        0.55966
H          1.37710       -1.63159        0.61349
H          2.90544       -1.42587        1.47524
