38

C          3.52243       -0.41419       -0.97908
C          2.67950       -1.67115       -0.82587
Nb         3.58133       -1.89542        1.14332
S          1.58248       -3.19883        1.77838
O          1.47278       -4.03238        2.98361
O          0.56667       -2.12585        1.59340
C          0.95585       -4.52031        0.44847
C          1.95606       -5.65306        0.10711
F          3.11023       -5.13589       -0.38340
F          2.24885       -6.40582        1.18022
F          1.45086       -6.48398       -0.85162
F         -0.17958       -5.09985        0.93158
F          0.63469       -3.90253       -0.73015
C          5.74003       -2.28809        0.88854
C          6.61842       -2.13130        1.98481
C          8.00033       -2.27188        1.84552
C          8.56812       -2.59585        0.60406
C          7.71981       -2.76855       -0.48634
C          6.32892       -2.61099       -0.34690
C          8.27878       -3.12491       -1.83616
F          9.64039       -3.19167       -1.85304
F          7.82573       -4.33457       -2.28249
F          7.92470       -2.21494       -2.79592
C          8.92276       -2.05823        3.01471
F          8.28560       -2.08352        4.21253
F          9.91114       -3.00345        3.07343
F          9.56977       -0.84969        2.94527
H          2.92918        0.49116       -1.16310
H          4.31454       -0.49069       -1.73451
H          4.08191       -0.12817       -0.02196
H          2.94770       -2.48709       -1.50958
H          1.59981       -1.50361       -0.84153
H          4.06167       -3.41144        1.90835
H          2.89196       -1.82655        2.75958
H          3.82263       -0.38302        2.05939
H          6.21062       -1.90878        2.97325
H          9.64447       -2.72018        0.49865
H          5.70771       -2.75585       -1.23582
