52

C          4.64855       -2.23449       -8.08824
S          4.21542       -2.58432       -6.36129
C          4.99578       -1.13835       -5.54454
C          4.83719       -1.19748       -4.02663
B          5.56670        0.11022       -3.35263
S          5.02689        0.02472       -1.48399
O          3.57316        0.17125       -1.32537
O          5.68633       -1.05288       -0.72682
C          5.72793        1.58873       -0.53730
C          5.25678        3.00499       -0.96730
F          3.91842        3.12892       -0.90342
F          5.79346        3.95075       -0.13912
F          5.65951        3.29888       -2.22016
F          5.35962        1.42534        0.76694
F          7.09165        1.58292       -0.59685
C          7.16905        0.11927       -3.51837
C          7.79985        1.13285       -4.26892
C          9.17210        1.11935       -4.52947
C          9.99964        0.08909       -4.03738
C          9.37964       -0.91687       -3.26801
C          8.00503       -0.90339       -3.02258
Si        11.83128        0.07215       -4.43121
C         12.57131        1.79785       -4.08757
C         12.33784        2.30434       -2.65970
C         12.92035        3.67558       -2.39789
F         12.38959        4.63582       -3.20728
F         12.70392        4.08319       -1.11336
F         14.27553        3.71355       -2.59064
C         12.74477       -1.21297       -3.38339
C         12.13394       -0.29732       -6.26417
H          4.22724       -3.04008       -8.70373
H          5.73904       -2.21455       -8.22914
H          4.22324       -1.27651       -8.42153
H          4.52797       -0.22607       -5.94739
H          6.05971       -1.12983       -5.82898
H          5.27610       -2.13712       -3.65064
H          3.76581       -1.21643       -3.77080
H          5.05347        1.15305       -3.72390
H          7.18942        1.95168       -4.65961
H          9.60244        1.93050       -5.12721
H          9.98096       -1.73019       -2.85075
H          7.56489       -1.69533       -2.41220
H         12.12818        2.50632       -4.80585
H         13.65057        1.76732       -4.30868
H         12.78665        1.63193       -1.91319
H         11.26295        2.36469       -2.43305
H         12.60839       -1.03699       -2.30694
H         13.82367       -1.19180       -3.59721
H         12.38245       -2.22823       -3.59895
H         11.60736        0.42931       -6.89938
H         11.75715       -1.29678       -6.52393
H         13.20419       -0.25874       -6.51681
