45

C          3.94934        2.06953       -2.76710
C          4.77520        1.44304       -1.64028
C          5.16571       -0.01386       -1.91074
C          6.00959       -0.64586       -0.79947
C          6.40428       -2.10757       -1.07294
C          7.23752       -2.73447        0.04881
Ta         8.16574       -4.70748       -0.28180
S          5.91721       -5.31101        0.89968
O          5.53059       -4.78759        2.21118
O          4.86759       -5.28664       -0.13122
F          6.11531       -6.97741        1.23639
C         10.23991       -5.20693        0.02851
C         11.25311       -4.25967        0.60571
O         12.54797       -4.89712        0.75203
C         13.49206       -4.03751        1.35145
C         14.80536       -4.76718        1.55147
O         15.49284       -4.89784        0.31106
C         16.67759       -5.65516        0.43710
H          3.67922        3.11296       -2.54586
H          3.01566        1.51036       -2.93036
H          4.50674        2.06283       -3.71652
H          4.20815        1.49543       -0.69509
H          5.68961        2.03940       -1.47694
H          5.71866       -0.06888       -2.86592
H          4.25003       -0.61359       -2.05794
H          5.45653       -0.59596        0.15483
H          6.92663       -0.04681       -0.65198
H          6.95900       -2.15737       -2.02640
H          5.48413       -2.70040       -1.21594
H          6.69255       -2.66544        1.00266
H          8.19006       -2.17259        0.18009
H          8.37995       -4.45178        1.45579
H          8.73075       -3.66991       -1.65183
H          7.46401       -6.18198       -1.02198
H         10.53247       -5.53199       -0.99429
H         10.15845       -6.12054        0.65368
H         10.92192       -3.90879        1.60214
H         11.37147       -3.36951       -0.04247
H         13.13219       -3.69162        2.34475
H         13.66410       -3.13223        0.73194
H         14.60396       -5.76751        1.98281
H         15.43366       -4.20299        2.27227
H         17.13320       -5.71798       -0.55999
H         16.47233       -6.68017        0.80298
H         17.39935       -5.17890        1.13165
