13

S          0.87932       -0.23705       -0.03051
C          2.72090       -0.05533       -0.00964
C          3.27035       -0.68839        1.26590
C          4.81732       -0.71202        1.26465
N          5.24655        0.65207        1.14196
I          7.36310        0.70666        1.15040
H          0.63803        0.50271       -1.13933
H          2.98826        1.00546       -0.04517
H          3.13161       -0.56056       -0.89470
H          2.89659       -1.72325        1.36478
H          2.91590       -0.11383        2.13724
H          5.12565       -1.40619        0.42889
H          5.12678       -1.25324        2.20314
