22

O          4.98081       -0.26733       -0.21523
C          4.58542        0.90796       -0.32495
O          4.94538        2.00951        0.08542
C          3.22494        0.92186       -1.25411
S          3.44006       -0.33413       -2.68489
O          2.23713       -0.35102       -3.49940
O          4.72375       -0.03981       -3.28818
C          3.60540       -2.15917       -1.98154
C          2.91721       -3.17656       -2.96474
C          3.23681       -4.69068       -2.66799
F          2.94265       -5.01764       -1.39503
F          2.47995       -5.46222       -3.48532
F          4.52800       -4.98783       -2.90279
F          1.57109       -3.04912       -2.90109
F          3.33908       -2.94311       -4.23832
F          4.91095       -2.47450       -1.91329
F          3.02765       -2.28441       -0.77318
S          1.68636        0.64821       -0.23710
O          1.23953        1.90139        0.30872
O          0.76505       -0.27247       -0.85168
F          2.32712       -0.14777        0.99922
Cl         2.92411        2.42890       -2.15007
