42

C          1.47451        1.48842        1.74535
C          2.03540        0.07909        1.95913
C          3.20002       -0.24693        1.01996
Ta         5.27191        0.33220        1.16638
S          6.19530        1.96082       -0.49066
O          5.19745        1.63204       -1.54999
O          6.50348        3.38315       -0.27082
C          7.85185        1.41479       -1.43446
C          9.12391        1.36430       -0.54236
C         10.39022        0.67647       -1.16551
F         10.21405       -0.64858       -1.33062
F         10.70355        1.21840       -2.36217
F         11.45742        0.84803       -0.34309
F          9.49754        2.62917       -0.20677
F          8.84750        0.67520        0.60677
F          7.68626        0.19045       -2.01895
F          8.06559        2.31820       -2.43675
C          5.66721       -0.66006        3.09505
C          5.17664       -2.10981        3.29102
C          5.83961       -3.13239        2.35879
C          5.27262       -4.54082        2.51743
N          5.99644       -5.50477        1.66881
H          0.65605        1.70636        2.44827
H          1.08160        1.60054        0.72318
H          2.26150        2.24433        1.87303
H          1.21341       -0.65095        1.82980
H          2.36075       -0.02693        3.00900
H          2.93633       -0.01713       -0.03120
H          3.41486       -1.34722        1.04160
H          4.53530        1.92959        1.00476
H          6.06780        1.54302        2.17008
H          6.23397       -0.59007       -0.03176
H          5.23755       -0.01098        3.88018
H          6.76146       -0.60525        3.25732
H          4.08171       -2.15556        3.14852
H          5.34916       -2.44015        4.33472
H          6.92663       -3.15777        2.54133
H          5.72139       -2.81132        1.30719
H          4.18210       -4.50812        2.31419
H          5.38679       -4.86614        3.56593
H          5.97313       -5.18433        0.69823
H          5.52621       -6.41113        1.68084
