40

C          1.10009        3.14959        2.98600
O          2.34603        2.72320        2.47559
C          3.02860        1.85911        3.37831
C          4.41272        1.53447        2.85068
O          5.26755        2.64418        3.03173
C          6.60894        2.39364        2.54512
C          7.48679        3.59302        2.79643
Ta         9.62743        3.63587        2.47039
S         11.20014        1.88654        1.69678
O         12.62129        2.15874        1.99087
O         10.63463        0.59388        2.15294
C         11.28559        1.51092       -0.22917
C         11.63993        2.65595       -1.22283
F         12.69063        3.38189       -0.79652
F         11.97963        2.12891       -2.44076
F         10.59701        3.48007       -1.43141
F         12.25966        0.55966       -0.35458
F         10.11133        0.95984       -0.65078
C          9.96998        5.77216        2.87845
O          9.47664        6.72214        1.87358
C          9.62638        8.01660        2.14444
F         10.92985        8.40520        2.32138
F          9.12784        8.73767        1.11232
F          8.96683        8.43226        3.27931
H          0.65010        3.81402        2.23665
H          1.21613        3.70643        3.93623
H          0.41438        2.29717        3.16663
H          2.45423        0.91774        3.50496
H          3.11954        2.34148        4.37171
H          4.34108        1.25307        1.77974
H          4.79726        0.64772        3.39921
H          6.56818        2.16984        1.46373
H          7.00281        1.49145        3.05369
H          7.43585        3.87497        3.87471
H          7.11454        4.46868        2.22764
H         10.40008        4.27826        1.03293
H          9.06493        2.84545        1.01086
H         10.52109        2.82833        3.79650
H         11.05921        5.91128        3.00059
H          9.48436        6.02243        3.84440
