48

C          5.81739       -2.15112        1.32928
C          5.01553       -1.39953        0.26177
C          5.89742       -0.69489       -0.78455
C          5.10623        0.03840       -1.87083
Nb         6.28225        1.13997       -3.39560
C          4.33262        0.55610       -4.65376
C          2.92211        1.23377       -4.48406
C          2.80691        2.79607       -4.56862
C          1.33616        3.34438       -4.72407
F          0.82694        3.10008       -5.94790
F          0.49889        2.83072       -3.80103
F          1.35411        4.69315       -4.55814
F          3.29306        3.35994       -3.43009
F          3.48763        3.29296       -5.63905
F          2.03340        0.75135       -5.43490
F          2.40773        0.88500       -3.26223
F          4.63225        0.76190       -6.02494
F          3.94740       -0.80027       -4.61583
C          8.45087        0.60886       -3.56598
C          8.61253        0.48927       -5.05409
O          7.58190        1.38857       -5.55244
C          7.41515        1.41293       -6.96771
C          6.66464        2.66495       -7.36986
O          7.56588        3.77479       -7.41480
C          6.87510        5.00321       -7.53224
H          5.16505       -2.64223        2.06818
H          6.48614       -1.46771        1.87565
H          6.44940       -2.92918        0.87302
H          4.36679       -0.64878        0.74526
H          4.33534       -2.09946       -0.25287
H          6.54902       -1.45619       -1.25210
H          6.57481        0.00971       -0.27276
H          4.52005        0.86388       -1.41034
H          4.38684       -0.65749       -2.32295
H          6.80369        1.71819       -1.74509
H          6.32481       -0.51213       -4.02112
H          5.63643        2.62326       -4.17853
H          8.70070       -0.30324       -3.00994
H          9.01827        1.46130       -3.15279
H          8.39606       -0.53581       -5.40406
H          9.58145        0.81881       -5.48834
H          6.85260        0.52031       -7.29368
H          8.41117        1.40576       -7.44967
H          5.86041        2.84776       -6.63809
H          6.20022        2.51624       -8.36625
H          7.62878        5.80234       -7.54898
H          6.18992        5.16753       -6.68006
H          6.28142        5.05322       -8.46790
