19

I          1.53991        0.88322       -0.33434
C          3.37136       -0.04713        0.26264
S          3.84550       -1.40667       -0.60151
O          3.59266       -1.29452       -2.03208
O          5.15747       -1.83937       -0.11133
C          2.75075       -2.92877       -0.12139
C          3.32654       -4.34070       -0.43480
F          3.67972       -4.44905       -1.73144
F          4.39469       -4.63008        0.33094
F          2.38470       -5.30256       -0.18942
F          2.52217       -2.88824        1.23285
F          1.54085       -2.83823       -0.74721
C          3.71670        0.07490        1.72786
C          4.54441        1.33766        2.02654
O          4.74350        1.77587        3.14467
O          5.06566        1.90035        0.92080
H          4.35931       -0.77233        2.01867
H          2.85109        0.06578        2.40709
H          4.68563        1.32137        0.18231
