27

C          0.77542       -0.11102        0.20348
C          2.29707       -0.09627        0.00927
C          2.88817        1.32337       -0.14022
C          2.55265        2.23138       -1.35112
S          3.25847        1.44933       -2.89108
O          4.72355        1.57623       -2.80341
O          2.73012        0.10734       -3.14194
C          2.70013        2.53183       -4.21358
C          0.98919        2.58031       -1.45701
O          0.64254        3.40388       -0.57099
O          0.31910        2.02774       -2.35694
N          3.24393        3.51433       -1.26657
C          2.99056       -0.78747        1.19378
H          0.25109        0.29603       -0.66952
H          0.48575        0.48865        1.08180
H          0.42427       -1.14242        0.36697
H          2.53050       -0.66227       -0.90496
H          3.99046        1.24310       -0.10005
H          2.58085        1.92708        0.73243
H          3.02112        3.55004       -3.96984
H          1.60914        2.44451       -4.25712
H          3.19424        2.15869       -5.11864
H          4.15267        3.41243       -0.81124
H          2.62328        4.10095       -0.69630
H          2.79978       -0.24121        2.13332
H          4.08115       -0.83828        1.05177
H          2.61679       -1.81463        1.32629
