27

I          1.81497       -1.93181       -0.51226
Nb         3.78150       -0.06668        0.08941
S          4.33286        1.74940        1.62520
O          3.87571        2.20404        2.94729
O          5.51374        0.79321        1.56983
C          5.22387        3.37773        0.99822
C          4.26115        4.52278        0.58443
F          3.52394        4.95017        1.62868
F          4.96316        5.59432        0.11455
F          3.42650        4.12008       -0.39369
F          5.99752        3.83436        2.02533
F          6.04165        3.12103       -0.05433
C          5.53643       -1.15324       -0.65114
C          6.28290       -2.11000        0.28173
C          5.43420       -3.28028        0.78002
N          6.25697       -4.22787        1.55725
H          3.16738       -0.16084        1.74915
H          2.73828        0.76823       -1.05184
H          4.40990        1.33689       -0.74341
H          6.20584       -0.34325       -0.98282
H          5.16238       -1.67117       -1.55610
H          6.67351       -1.55548        1.14876
H          7.17082       -2.53071       -0.23472
H          4.91943       -3.74811       -0.08264
H          4.63691       -2.90706        1.44369
H          6.98128       -4.61970        0.95037
H          5.68366       -5.01752        1.85917
