70

C         -0.05404        1.71654        0.04990
C          0.97615        2.81291       -0.23079
C          2.17027        2.32734       -1.05786
C          3.21132        3.41502       -1.33727
C          4.41342        2.92355       -2.14882
C          5.46106        4.00718       -2.42007
C          6.66883        3.50603       -3.22082
C          7.72572        4.58608       -3.49351
Si         9.20239        4.02280       -4.55808
C          8.58635        3.40773       -6.21810
C          7.79953        4.25012       -7.03429
C          7.30386        3.80680       -8.26175
C          7.56218        2.51877       -8.75005
C          8.34453        1.68209       -7.94154
C          8.84501        2.11124       -6.70278
As         6.61171        2.06940      -10.64618
C          8.42144        2.21021      -11.71724
C          8.17260        2.98833      -12.99815
C          9.45891        3.48321      -13.65713
S          9.22279        4.58221      -15.12614
C          6.77749       -0.02393      -10.39306
C          5.71334       -0.56230       -9.45116
S          4.43560       -1.49227      -10.37585
C          3.11803       -1.58543       -9.13046
C         10.34680        5.52143       -4.76803
C         10.15420        2.66234       -3.64345
H         -0.89677        2.09320        0.64710
H          0.39850        0.87874        0.60175
H         -0.46428        1.30895       -0.88627
H          1.34264        3.22779        0.72388
H          0.48864        3.65123       -0.75689
H          1.80632        1.91624       -2.01593
H          2.65552        1.48452       -0.53386
H          3.56587        3.83349       -0.37806
H          2.72859        4.25228       -1.87182
H          4.06151        2.51104       -3.11025
H          4.89093        2.08170       -1.61626
H          5.80887        4.42937       -1.45965
H          4.98960        4.84373       -2.96568
H          6.31836        3.09023       -4.18028
H          7.12931        2.66195       -2.67766
H          8.11033        4.99143       -2.53978
H          7.25288        5.43932       -4.01209
H          7.56835        5.27036       -6.70302
H          6.69453        4.48351       -8.87708
H          8.57831        0.66317       -8.26753
H          9.44703        1.41793       -6.10532
H          6.46217        3.66431      -10.79709
H          5.82827        1.86944      -12.04488
H          5.22093        2.01882       -9.81680
H          8.82104        1.20180      -11.90635
H          9.10363        2.74723      -11.04048
H          7.52532        3.85776      -12.77707
H          7.61259        2.36660      -13.71684
H         10.10769        2.64664      -13.95234
H         10.03077        4.11398      -12.95997
H          8.40140        3.74745      -15.80614
H          7.79019       -0.27759      -10.05295
H          6.65768       -0.38462      -11.42487
H          5.18572        0.28519       -8.96103
H          6.12714       -1.21501       -8.66572
H          2.23726       -2.02404       -9.61867
H          2.85839       -0.58056       -8.76786
H          3.40161       -2.21978       -8.27769
H          9.83800        6.32657       -5.31775
H         11.24615        5.25063       -5.33948
H         10.66735        5.92525       -3.79565
H          9.53059        1.77395       -3.47081
H         10.50430        3.02494       -2.66535
H         11.03616        2.34315       -4.21727
