24

N          1.69299       -0.64209       -0.23074
Nb         3.46835        0.08306       -0.65896
S          5.03601       -0.25462        1.21851
O          5.90590        0.60106        2.03815
O          3.74805       -0.75700        1.80886
C          6.10742       -1.87963        1.12100
C          6.88540       -2.20710        2.43352
F          7.90767       -1.36109        2.64410
F          6.06567       -2.18210        3.50293
F          7.41558       -3.46540        2.35678
F          5.32341       -2.95352        0.84459
F          7.02928       -1.74642        0.12281
C          3.71467        2.28343       -0.01683
C          2.77910        3.37680       -0.60461
F          1.47417        2.99880       -0.48811
F          2.89352        4.57714        0.04197
F          3.01665        3.63123       -1.91279
F          3.56614        2.46756        1.36899
F          5.01157        2.72059       -0.32491
H          1.42511       -1.00883        0.67886
H          0.91146       -0.60537       -0.88411
H          3.29999        1.17221       -2.03806
H          4.62148       -1.23038       -0.99296
H          3.65226       -0.52981       -2.29373
