40

C          4.11919        0.93309        2.45528
C          3.82811        0.44334        1.03512
C          4.75970       -0.68431        0.57439
N          4.44503       -1.08415       -0.77174
C          5.18537       -2.04185       -1.31481
C          6.29098       -2.74550       -0.68864
C          7.01091       -3.72227       -1.35085
C          6.71337       -4.09549       -2.68299
C          5.62995       -3.42959       -3.32273
C          4.90641       -2.45723       -2.67410
C          7.49427       -5.13573       -3.36644
C          7.25385       -6.64373       -2.96902
C          5.82410       -7.28053       -3.14843
C          5.18096       -7.48650       -4.58260
C          5.97126       -8.32480       -5.65655
C          5.08256       -8.83176       -6.85720
F          4.36704       -7.83003       -7.40128
F          5.89817       -9.33605       -7.81100
F          4.24031       -9.81027       -6.47712
F          6.95677       -7.56906       -6.19273
F          6.51610       -9.43451       -5.08997
F          4.00333       -8.15339       -4.35337
F          4.87519       -6.28578       -5.12310
F          5.88368       -8.52900       -2.58319
F          4.91625       -6.55673       -2.45101
F          8.12329       -7.47447       -3.64591
F          7.53374       -6.78031       -1.63859
F          7.33304       -5.10347       -4.74662
F          8.87786       -5.00221       -3.13073
H          3.43753        1.74242        2.75839
H          5.14861        1.31586        2.54152
H          4.01371        0.11767        3.18844
H          3.91572        1.27550        0.31768
H          2.78832        0.08572        0.95814
H          4.67232       -1.52672        1.30457
H          5.81389       -0.32624        0.67904
H          6.57549       -2.49097        0.33313
H          7.84414       -4.20753       -0.83633
H          5.37901       -3.68688       -4.35331
H          4.08606       -1.94706       -3.18402
