32

C          6.13078       -4.70861        2.24200
O          5.84316       -3.53590        1.51151
C          6.21643       -2.36034        2.23157
C          5.93465       -1.13584        1.37144
O          6.23437       -0.01152        2.15980
C          6.14566        1.22963        1.44190
C          6.73478        2.33830        2.29008
P          8.66074        2.32969        2.42870
C          8.91466        3.55166        0.92125
C          8.95379        5.00796        1.32796
N          9.11543        5.92842        0.16664
F         10.42543        2.32766        2.64484
H          5.82201       -5.56438        1.62618
H          5.57869       -4.73972        3.20240
H          7.21175       -4.79748        2.46571
H          7.29144       -2.38909        2.49092
H          5.64320       -2.28955        3.17645
H          4.87121       -1.14158        1.04529
H          6.56222       -1.16452        0.45751
H          5.07670        1.40612        1.18124
H          6.71130        1.13450        0.49154
H          6.32202        2.27168        3.31052
H          6.41263        3.30502        1.86808
H          8.59917        1.38667        3.55505
H          8.58848        3.46959        3.36973
H          8.80358        1.20491        1.47352
H          8.10848        3.37124        0.18828
H          9.87095        3.25457        0.46188
H          9.75491        5.13270        2.08098
H          8.01160        5.28360        1.83399
H          9.92026        5.60605       -0.37692
H          9.36816        6.86257        0.50403
