62

N          0.84223        0.16176       -1.47102
C          2.13806        0.26725       -0.77327
C          3.16289        0.99816       -1.63663
C          4.53835        1.16187       -0.96775
C          5.56992        1.80639       -1.88140
Sb         7.64965        2.14834       -1.04550
C          8.47970        0.29700       -2.20737
C          7.62107       -0.80519       -2.05281
C          7.84416       -2.03512       -2.67671
C          8.95838       -2.19529       -3.50738
C          9.83271       -1.12724       -3.67931
C          9.61600        0.10576       -3.02740
C         10.68891        1.13574       -3.30363
O         11.41589        1.06577       -4.28406
O         10.87552        2.13108       -2.41713
C          7.87325        3.53145       -2.86515
C          7.69488        4.90859       -2.67334
C          7.53719        5.78786       -3.74703
C          7.56154        5.29402       -5.06204
C          7.76885        3.92398       -5.27799
C          7.91669        3.06262       -4.18657
C          7.28429        6.21997       -6.21307
C          8.39481        7.26281       -6.61900
C          9.80045        6.75938       -7.12240
C          9.96467        5.99998       -8.50619
C          9.44042        6.70077       -9.81721
C         10.07328        6.13459      -11.14640
F         10.00075        4.79221      -11.19159
F          9.38294        6.63472      -12.19466
F         11.35815        6.50911      -11.27895
F          8.09975        6.53083       -9.91186
F          9.72024        8.03068       -9.79274
F         11.31270        5.82588       -8.65353
F          9.39152        4.77756       -8.42013
F         10.59522        7.86856       -7.20102
F         10.32389        5.93110       -6.18712
F          7.89425        8.08640       -7.59044
F          8.65880        8.03472       -5.52596
F          6.97211        5.53197       -7.36411
F          6.18901        7.02213       -5.92943
H          0.19546       -0.41742       -0.93328
H          0.97801       -0.31889       -2.36332
H          2.55836       -0.71578       -0.47801
H          1.97083        0.83205        0.15887
H          2.76061        1.98506       -1.91770
H          3.29421        0.44043       -2.58247
H          4.88919        0.16998       -0.63144
H          4.42365        1.76139       -0.04676
H          5.25968        2.82349       -2.16715
H          5.70143        1.22782       -2.80861
H          7.11613        3.58079       -0.11472
H          7.38698        1.04333        0.33205
H          9.37467        2.46977       -0.49545
H          6.74084       -0.70232       -1.41069
H          7.14783       -2.86420       -2.52238
H          9.14370       -3.14475       -4.01431
H         10.70907       -1.21256       -4.32441
H         10.22939        2.11700       -1.64880
H          7.63853        5.30477       -1.65343
H          7.36449        6.85016       -3.56680
H          7.78811        3.52834       -6.29415
H          8.04874        1.99610       -4.38602
