51

C          4.76101       -3.52264        0.00311
C          5.14732       -2.18958        0.66602
Al         3.65471       -0.98126        1.35549
C          2.30232       -2.16010        2.35506
C          2.16328       -2.06637        3.75865
C          1.26575       -2.84643        4.48994
C          0.44778       -3.77522        3.82464
C          0.55233       -3.90400        2.43148
C          1.46408       -3.11068        1.73022
C         -0.50980       -4.62194        4.60405
C         -1.81314       -3.92755        5.15833
C         -2.82687       -3.24519        4.16258
C         -3.63858       -4.09279        3.09628
C         -4.53170       -5.28645        3.60436
C         -5.61791       -5.76564        2.56644
F         -5.07420       -5.99314        1.35690
F         -6.15738       -6.92017        3.01498
F         -6.60980       -4.86661        2.43778
F         -3.74587       -6.35541        3.87426
F         -5.20292       -4.93021        4.73158
F         -4.47428       -3.19448        2.49079
F         -2.78727       -4.56808        2.15802
F         -3.75854       -2.61507        4.94061
F         -2.17048       -2.29934        3.44857
F         -2.52976       -4.83653        5.89131
F         -1.42808       -2.93272        6.00821
F         -0.94267       -5.71525        3.88387
F          0.08961       -5.12433        5.75029
C          2.63693        0.17365       -0.01133
C          2.25933       -0.43570       -1.37161
C          3.45365       -0.64885       -2.30757
C          1.39353        0.76560        0.67322
H          5.62977       -4.13843       -0.29884
H          4.15446       -3.37224       -0.90570
H          4.15310       -4.14211        0.68182
H          5.79876       -1.61000       -0.01514
H          5.78114       -2.40105        1.54749
H          4.26508        0.04754        2.49360
H          2.78874       -1.34978        4.30058
H          1.20364       -2.74681        5.57539
H         -0.06856       -4.62932        1.90388
H          1.51967       -3.24855        0.64584
H          3.32402        1.02025       -0.22076
H          1.52478        0.21777       -1.89268
H          1.73150       -1.39767       -1.22986
H          3.94858        0.31196       -2.52339
H          3.15180       -1.09346       -3.26934
H          4.20722       -1.30492       -1.85045
H          0.66136       -0.01839        0.92921
H          0.86409        1.50046        0.03139
H          1.65172        1.27520        1.61501
