48

C          1.13348       -0.03443        0.23718
C          2.62725        0.15391       -0.03393
C          3.06035        1.59189       -0.43471
C          2.40836        1.95731       -1.76160
C          1.14924        2.59458       -1.80794
C          0.53566        2.87966       -3.03039
C          1.14927        2.55666       -4.24802
C          2.38605        1.91929       -4.21166
C          3.00173        1.62042       -2.98473
C          3.07354        1.51243       -5.48262
F          2.46195        1.99389       -6.60115
F          4.37245        1.93967       -5.53459
F          3.12779        0.14910       -5.63261
C         -0.78956        3.58996       -3.07252
F         -1.45239        3.56384       -1.89122
F         -0.65870        4.91036       -3.42020
F         -1.63355        3.04701       -4.01035
C          2.70666        2.60762        0.76934
O          3.02099        2.17754        1.90474
O          2.22272        3.72468        0.44803
C          4.60777        1.60961       -0.51531
C          5.21807        2.97291       -0.85824
C          6.74593        2.97026       -0.78509
C          7.35295        4.32343       -1.15020
N          8.80828        4.27702       -1.06558
C          9.59275        5.37570       -1.36373
N          9.21502        6.58143       -1.62672
N         10.96799        5.07102       -1.36631
H          0.92668       -1.06766        0.55441
H          0.51879        0.16701       -0.65264
H          0.80511        0.63795        1.04209
H          2.95922       -0.55303       -0.81679
H          3.18258       -0.07736        0.88688
H          0.68369        2.89260       -0.87201
H          0.66979        2.79203       -5.19684
H          3.96759        1.11378       -2.99819
H          4.97402        0.84419       -1.22651
H          4.95890        1.30149        0.48173
H          4.81402        3.72636       -0.16406
H          4.90137        3.28894       -1.86636
H          7.15117        2.19962       -1.46797
H          7.06993        2.69257        0.23180
H          6.98454        5.09394       -0.45365
H          7.02058        4.61862       -2.16462
H          9.22038        3.37935       -1.30550
H          8.19725        6.63599       -1.71766
H         11.25813        4.50673       -0.57035
H         11.50882        5.93030       -1.42791
