73

F          1.22762        3.04637        6.40875
C          1.64961        1.75198        6.28798
C          2.45718        1.53101        5.03875
C          3.59134        2.32787        4.81150
C          4.39547        2.16925        3.66905
C          4.00670        1.16689        2.75420
C          2.87479        0.37376        2.97611
C          2.09089        0.54636        4.12276
C          2.50951       -0.72009        2.00716
F          2.94023       -0.47731        0.74609
F          3.04589       -1.92806        2.37672
F          1.15730       -0.92002        1.93443
Al         6.06370        3.27679        3.46782
S          6.45711        3.50921        1.06131
O          7.72461        4.17956        0.72105
O          6.16795        2.21168        0.41372
C          5.05546        4.65218        0.25982
C          5.43490        6.13003       -0.00718
F          6.36186        6.22472       -0.97697
F          4.34281        6.84310       -0.41327
F          5.90554        6.71834        1.11100
F          4.65455        4.10510       -0.91567
F          3.99244        4.63892        1.12644
C          5.93120        5.09862        4.27410
C          7.09696        5.74094        4.74376
C          7.06503        7.02719        5.28720
C          5.85538        7.74360        5.39690
C          4.68436        7.10627        4.94411
C          4.72643        5.81960        4.39744
Si         5.85698        9.51310        6.02802
C          6.85827       10.58075        4.80381
C          6.39019       10.43867        3.34837
C          7.17152       11.32686        2.39635
C          6.89512       11.14293        0.85991
C          5.43300       11.29765        0.29101
C          4.64343       12.66449        0.41015
C          5.27968       13.95628       -0.22689
C          4.26109       15.14203       -0.43105
F          3.57877       15.39736        0.70150
F          4.95591       16.24814       -0.76930
F          3.38777       14.87788       -1.41739
F          6.26753       14.41527        0.57776
F          5.79763       13.66805       -1.44825
F          3.45102       12.44633       -0.21722
F          4.38892       12.91018        1.72130
F          5.49675       10.98822       -1.03065
F          4.63938       10.37432        0.90197
F          7.68859       12.01257        0.16668
F          7.26866        9.87641        0.53056
F          6.97540       12.66021        2.69226
F          8.52412       11.10132        2.52305
C          4.09554       10.19109        6.14504
C          6.70116        9.64369        7.71512
F          2.36999        1.48548        7.42094
F          0.53293        0.97222        6.34957
H          3.84159        3.09369        5.55160
H          4.59131        1.01535        1.84334
H          1.20819       -0.06849        4.29070
H          7.44465        2.50988        3.77764
H          8.05906        5.22423        4.67371
H          8.00284        7.48080        5.62587
H          3.72187        7.62194        5.01029
H          3.79035        5.37530        4.04596
H          7.91615       10.28575        4.88229
H          6.80137       11.63388        5.12356
H          5.32818       10.70348        3.24799
H          6.49362        9.39855        3.00536
H          3.58232       10.18450        5.17308
H          4.10651       11.22810        6.51119
H          3.48900        9.59606        6.84262
H          7.72004        9.23253        7.68015
H          6.14185        9.07943        8.47467
H          6.77018       10.68958        8.04886
