27

N          3.28308       -0.06000       -2.40186
Nb         3.86212        0.39117       -0.54376
S          4.77560       -0.34781        1.60429
O          5.80525       -1.30995        2.03048
O          5.15583        1.11030        1.50441
C          3.68697       -0.28684        3.23736
C          2.67093       -1.45123        3.49569
C          3.23004       -2.91776        3.46536
C          2.23802       -4.01100        4.01607
F          2.07482       -3.91213        5.35035
F          1.02780       -3.93566        3.42923
F          2.75482       -5.23414        3.75437
F          3.51131       -3.25951        2.18416
F          4.35550       -3.01668        4.21836
F          2.11799       -1.25607        4.74360
F          1.66853       -1.37161        2.58495
F          4.56099       -0.25099        4.28502
F          2.95612        0.85634        3.27617
C          3.28805        2.55846       -0.62495
F          4.21541        2.95678       -1.65180
F          2.05639        2.89999       -1.13348
F          3.51548        3.43448        0.39025
H          2.58389       -0.71070       -2.74372
H          3.70384        0.44116       -3.18961
H          5.54488       -0.24018       -0.54691
H          2.75492       -0.94421       -0.31651
H          2.67920        0.55615        0.73950
