31

S          2.43606       -0.43241        1.25048
Ta         4.23770        0.44291       -0.21616
S          4.41731        2.83621       -0.87428
O          3.72052        3.74828       -1.79306
O          3.61746        2.44542        0.41207
C          5.69548        4.04879       -0.01336
C          7.01124        4.22474       -0.81667
F          7.69160        3.06696       -0.89192
F          6.75622        4.65628       -2.06985
F          7.81783        5.14529       -0.21927
F          5.09528        5.26676        0.08468
F          6.01006        3.62789        1.23261
C          5.05460       -1.54544        0.27636
C          6.39630       -2.11965       -0.17610
C          7.59355       -1.49543        0.54433
C          8.92911       -2.04246        0.05296
N         10.05651       -1.41913        0.77527
H          1.80772        0.76785        1.31295
H          5.29666       -0.02428       -1.56861
H          5.82557        1.09589        0.29169
H          3.36696        0.62191       -1.76064
H          4.23563       -2.04720       -0.30328
H          4.86978       -1.81606        1.33164
H          6.50815       -1.95489       -1.26005
H          6.42834       -3.21680       -0.01277
H          7.51175       -1.65736        1.63294
H          7.55724       -0.40365        0.38733
H          8.98284       -1.89787       -1.04522
H          8.97504       -3.13083        0.23143
H          9.96068       -0.40263        0.71357
H         10.93843       -1.64639        0.31239
