13

O          1.06099       -0.11009       -0.30436
N          2.53307       -0.25933       -0.19454
C          2.80560       -0.55656        1.06255
C          2.20356        0.20559        2.30184
C          0.65720        0.19575        2.61482
F          0.06792       -0.99157        2.42850
F          0.47610        0.52609        3.93693
F         -0.02080        1.13274        1.91336
F          2.81637       -0.22642        3.45208
F          2.53131        1.54867        2.18580
F          2.47060       -2.03861        1.54946
F          4.18126       -0.54385        1.24972
H          1.00374        0.75060       -0.74654
