16

O          2.52049        1.19925        0.84680
C          2.26053        0.20291        0.02650
O          1.35137        0.21691       -0.79438
C          3.10692       -1.09033        0.20250
C          4.64569       -1.01511        0.21723
C          5.18829       -0.39007       -1.07957
F          4.63403       -0.93795       -2.20343
F          4.88541        0.94100       -1.11600
F          6.52977       -0.48527       -1.22111
C          5.31783       -0.30482        1.48670
O          6.48489       -0.58275        1.75966
O          4.53716        0.50951        2.09188
I          5.34082       -3.12846        0.21558
H          3.38650        0.92972        1.42557
H          2.77942       -1.76516       -0.59489
H          2.80182       -1.53141        1.16336
