20

N          1.08112        0.14793       -0.20328
C          2.55855        0.02024       -0.13534
C          2.98705       -1.05010        0.87184
N          4.39203       -1.09435        1.00411
C          4.79059       -2.11899        1.89274
C          6.31808       -2.12695        1.93090
C          7.01722       -3.12737        2.80863
O          6.54913       -3.94432        3.57265
O          8.41526       -3.07133        2.69945
H          0.82988        1.03786       -0.63765
H          0.73273        0.20036        0.75862
H          3.06903        0.95938        0.15214
H          2.93270       -0.25959       -1.13360
H          2.51945       -2.03134        0.55514
H          2.43536       -0.80803        1.84658
H          4.44128       -3.15821        1.60765
H          4.41740       -2.00129        2.95591
H          6.64048       -1.10518        2.21502
H          6.66911       -2.24647        0.88644
H          8.61616       -2.37486        2.05027
