33

F          1.00536        0.32809        0.11650
C          2.37916        0.21481        0.08435
C          2.87473        0.58310        1.52059
F          2.29006       -0.17874        2.46411
F          4.21762        0.42308        1.61633
F          2.59579        1.87909        1.81126
C          2.81551       -1.12041       -0.48137
C          2.42073       -2.39102        0.30120
C          2.72221       -3.68929       -0.44938
Ga         2.24993       -5.28047        0.75023
C          2.66614       -7.10439       -0.03163
C          3.96917       -7.51670       -0.36553
C          4.25653       -8.81605       -0.80170
C          3.24405       -9.77769       -0.92329
C          1.93577       -9.38567       -0.60063
C          1.66220       -8.08361       -0.17078
C          3.54604      -11.18537       -1.38009
F          2.83138        1.24431       -0.73313
H          3.90761       -1.07890       -0.61294
H          2.37417       -1.15335       -1.49081
H          1.34628       -2.34382        0.54358
H          2.94812       -2.40128        1.26901
H          3.79187       -3.73553       -0.72031
H          2.14760       -3.73063       -1.39081
H          0.66713       -5.22962        1.06851
H          3.13261       -5.09736        2.09268
H          4.79877       -6.80829       -0.26668
H          5.28824       -9.09542       -1.04298
H          1.12154      -10.11486       -0.68144
H          0.62976       -7.82056        0.08248
H          4.62411      -11.32730       -1.54183
H          3.03312      -11.42661       -2.32544
H          3.21861      -11.93255       -0.63926
