43

N          2.32858        0.05413       -0.87957
C          3.59787        0.38505       -0.20852
C          4.07633       -0.74094        0.71954
C          4.27828       -2.10191        0.05422
Ta         5.47533       -3.71420        0.91812
S          3.76230       -5.19633       -0.37419
O          4.45548       -6.52319       -0.29551
O          2.32086       -5.17333       -0.01017
C          3.71439       -4.86477       -2.19191
C          7.10019       -4.44713       -0.29935
C          7.48330       -3.70970       -1.58566
C          8.74964       -4.23929       -2.27814
C          9.07576       -3.48002       -3.56426
N         10.27812       -4.01106       -4.19607
C         10.78957       -3.47309       -5.36261
N         10.27127       -2.56386       -6.11841
N         12.03600       -4.02705       -5.71224
H          1.93750        0.87946       -1.33492
H          1.64154       -0.25337       -0.18802
H          3.54574        1.32477        0.38194
H          4.35610        0.54525       -0.99538
H          3.34237       -0.84539        1.54112
H          5.01596       -0.41520        1.19290
H          4.93909       -1.98250       -0.84083
H          3.31321       -2.47117       -0.32742
H          6.37543       -2.20530        1.38284
H          4.51459       -4.79995        1.94591
H          5.94394       -3.76759        2.62751
H          4.72758       -4.93518       -2.60713
H          3.27909       -3.87457       -2.37429
H          3.07374       -5.65084       -2.61226
H          6.96512       -5.52992       -0.46708
H          7.90005       -4.32863        0.47038
H          7.61912       -2.63593       -1.37139
H          6.65055       -3.77188       -2.30726
H          8.62351       -5.31004       -2.50822
H          9.60332       -4.16259       -1.58068
H          9.18665       -2.40061       -3.34065
H          8.23713       -3.57609       -4.27399
H         10.97303       -4.37782       -3.55152
H          9.43738       -2.15824       -5.68618
H         12.06945       -5.04082       -5.62763
H         12.29680       -3.72384       -6.64738
