24

Cl         1.42926        1.02784        0.86672
B          2.68344        0.00159       -0.24057
C          3.43879       -1.09687        0.68662
C          2.58258       -2.25216        1.24102
C          2.15084       -3.22225        0.13296
C          3.30306       -3.01841        2.36068
C          3.67725        1.15597       -0.80983
O          4.65224        0.53059       -1.77237
C          5.51895        1.32514       -2.35320
F          6.36059        2.00011       -1.48802
F          6.32707        0.59408       -3.17749
F          4.96201        2.31644       -3.14106
H          2.01600       -0.47892       -1.14862
H          3.91106       -0.57255        1.54056
H          4.27705       -1.53548        0.10681
H          1.66886       -1.80577        1.67372
H          3.03231       -3.71567       -0.31186
H          1.62950       -2.68684       -0.67154
H          1.48467       -4.01152        0.51933
H          4.23726       -3.46861        1.98337
H          2.68171       -3.83329        2.77066
H          3.57197       -2.34540        3.18900
H          4.28229        1.63384       -0.02162
H          3.14197        1.93787       -1.36833
