17

C          0.96817        0.05154        0.29162
B          2.56103       -0.24637        0.49272
C          3.46265        1.12079        0.62793
C          3.63397        2.10765       -0.56140
F          4.32996        1.55025       -1.58008
F          2.43490        2.51229       -1.05531
F          4.30903        3.24529       -0.20566
F          2.92779        1.92864        1.64690
F          4.77896        0.86421        1.03003
C          3.09294       -1.28197       -0.64863
F          2.83362       -0.91508       -1.96737
F          4.44796       -1.56347       -0.63658
F          2.48583       -2.53001       -0.53253
H          0.58853        0.73071        1.07091
H          0.39099       -0.88352        0.37167
H          0.71918        0.50062       -0.68332
H          2.77705       -0.80553        1.56381
