60

S          0.94859        1.07653       -0.65628
C          2.72489        0.68537       -0.31541
C          3.59964        1.87043       -0.72647
C          5.07716        1.61797       -0.47487
As         6.23381        3.30222       -0.84005
C          5.27633        4.34088        0.71188
C          4.72645        5.59325        0.41713
C          4.15494        6.39203        1.41013
C          4.11112        5.95826        2.75212
C          4.65531        4.69090        3.04186
C          5.22544        3.89866        2.03932
Si         3.65038        7.16200        4.10229
C          5.11548        8.38454        4.24071
C          6.45771        7.64186        4.22061
C          7.72141        8.45192        4.48175
C          8.44948        9.14387        3.26646
C          7.75517       10.27393        2.41127
C          7.27671       11.63411        3.05739
C          8.28767       12.60046        3.79793
C          9.53261       13.16018        3.01470
F          9.16579       13.70522        1.84003
F         10.10166       14.12516        3.77130
F         10.45103       12.21064        2.79024
F          7.54287       13.68844        4.15415
F          8.74092       12.01126        4.92839
F          6.73007       12.35101        2.03323
F          6.29182       11.37376        3.95337
F          8.63897       10.60829        1.42571
F          6.65590        9.74255        1.81445
F          9.62541        9.66926        3.72372
F          8.74928        8.16693        2.36797
F          7.53339        9.40924        5.45513
F          8.69416        7.60025        4.97232
C          2.10022        8.16788        3.70339
C          3.41576        6.30907        5.77547
F          7.49071        2.60471        0.48003
H          0.42459       -0.10106       -0.24146
H          2.99773       -0.21646       -0.88087
H          2.83731        0.47905        0.75789
H          3.27363        2.76349       -0.16504
H          3.42939        2.09547       -1.79316
H          5.49212        0.85049       -1.14598
H          5.27774        1.31878        0.56253
H          5.20473        3.89923       -1.88971
H          7.05751        2.52137       -1.95191
H          7.18267        4.55923       -0.96590
H          4.76091        5.95883       -0.61647
H          3.74906        7.37319        1.13795
H          4.65339        4.32014        4.07207
H          5.66972        2.93459        2.29703
H          5.01403        8.98537        5.15727
H          5.03193        9.07659        3.39256
H          6.59171        7.09697        3.27465
H          6.47795        6.87175        5.00797
H          2.18120        8.65176        2.72018
H          1.93566        8.95366        4.45548
H          1.21298        7.51951        3.68544
H          4.32405        5.78583        6.10539
H          2.60566        5.56802        5.72516
H          3.15488        7.04866        6.54656
