66

I          1.38952        1.85162        0.45131
Nb         4.03246        1.38624       -0.13144
C          5.22110        1.12617       -1.99464
C          4.64520        1.17050       -3.28225
C          5.41803        1.06493       -4.44398
C          6.80975        0.91889       -4.37509
C          7.39881        0.87496       -3.11079
C          6.61911        0.96617       -1.94741
C          8.88084        0.66577       -2.97793
F          9.55648        0.84973       -4.15084
F          9.45063        1.51102       -2.06770
F          9.19402       -0.60114       -2.55567
C          4.78288        1.14059       -5.80293
F          3.42797        1.03704       -5.77446
F          5.06375        2.32360       -6.44355
F          5.23070        0.15548       -6.64615
C          5.04081        1.19517        1.78037
C          5.22584        0.12201        2.67679
C          5.90571        0.29083        3.88183
C          6.46020        1.54032        4.24803
C          6.29709        2.60975        3.34929
C          5.59075        2.44002        2.15033
Si         7.34439        1.74980        5.89233
C          9.01389        0.82335        5.89707
C         10.02512        1.33370        4.86145
C         11.38903        0.68128        5.01437
C         12.47670        1.02791        3.93343
C         12.90248        2.52541        3.68326
C         13.57010        3.39965        4.82269
C         14.90684        2.88509        5.47629
C         15.70096        3.98861        6.27576
F         14.90174        4.61956        7.15691
F         16.69757        3.38695        6.95652
F         16.24621        4.89845        5.45102
F         14.62646        1.88760        6.34741
F         15.74393        2.41637        4.51509
F         13.84052        4.60260        4.23646
F         12.65881        3.60764        5.80640
F         13.76719        2.51109        2.63456
F         11.79417        3.22277        3.30270
F         13.61576        0.33156        4.21833
F         12.00565        0.59147        2.73122
F         11.93682        0.97125        6.24663
F         11.27989       -0.68950        4.95444
C          7.66955        3.57983        6.24540
C          6.31217        1.01159        7.29400
H          4.50629        2.94046       -0.88200
H          3.30969        0.08140       -1.03743
H          4.89707       -0.12784       -0.15725
H          3.56360        1.27965       -3.38526
H          7.41181        0.83303       -5.27785
H          7.12584        0.89585       -0.98081
H          4.83343       -0.86505        2.41784
H          6.01314       -0.56901        4.55186
H          6.70451        3.59615        3.58951
H          5.46809        3.30966        1.49094
H          8.81809       -0.24736        5.73266
H          9.43706        0.91231        6.91111
H         10.17004        2.41906        4.95586
H          9.66937        1.14485        3.83791
H          8.29530        4.05122        5.47429
H          8.18043        3.70302        7.21164
H          6.72567        4.14125        6.28998
H          6.11289       -0.05578        7.12288
H          5.34128        1.52104        7.36882
H          6.82567        1.10788        8.26187
