39

F          1.37546       -0.65068       -0.71565
Ga         2.65989        0.25063        0.29541
C          3.76010       -1.33397        0.96966
C          3.24075       -2.63650        0.82169
C          3.94379       -3.76459        1.25939
C          5.20746       -3.63537        1.85175
C          5.74270       -2.35699        2.00016
C          5.02307       -1.22729        1.56922
C          7.09810       -2.16819        2.61744
F          7.69999       -3.34168        2.97285
F          7.97013       -1.53059        1.77568
F          7.05430       -1.40228        3.75288
C          3.38079       -5.14895        1.10715
F          2.14789       -5.17400        0.54380
F          4.18023       -5.95458        0.33218
F          3.27166       -5.80074        2.31266
C          3.71115        1.44093       -0.95269
C          4.53491        0.69148       -2.00167
C          5.32449        1.58983       -2.96525
C          6.18345        0.81377       -3.96780
C          6.98100        1.70002       -4.92891
C          7.85714        0.90471       -5.90029
H          1.90839        1.00264        1.48830
H          2.26576       -2.75415        0.34294
H          5.76043       -4.51243        2.18577
H          5.47876       -0.24183        1.70885
H          4.36987        2.09142       -0.34800
H          2.98907        2.11509       -1.44566
H          3.86984        0.03603       -2.59114
H          5.24593        0.01090       -1.49898
H          5.97160        2.26674       -2.37763
H          4.61988        2.24421       -3.51006
H          5.53717        0.13414       -4.55184
H          6.88173        0.16043       -3.41441
H          7.61259        2.39045       -4.34373
H          6.28305        2.33849       -5.49746
H          8.58619        0.28492       -5.35635
H          8.41828        1.56168       -6.58122
H          7.24784        0.22604       -6.51671
