59

N          2.35953       -1.03897       -0.03415
C          3.69512       -0.75338        0.54766
C          3.60047       -0.05394        1.88967
P          5.32333        0.57723        2.58915
C          5.36190        2.09079        1.37039
C          4.40531        3.10855        1.38544
C          4.52856        4.23598        0.55487
C          5.61490        4.36305       -0.31322
C          6.58166        3.34968       -0.32894
C          6.45451        2.23297        0.50883
C          7.73350        3.44184       -1.28762
F          8.01861        4.72826       -1.65638
F          8.88517        2.91787       -0.78169
F          7.49446        2.76375       -2.45868
C          3.49577        5.32306        0.63072
F          2.22072        4.83202        0.65887
F          3.62447        6.08931        1.76155
F          3.55183        6.19337       -0.42134
C          5.48654       -0.85186        3.86624
C          5.69936       -2.18119        3.47581
C          5.86610       -3.20072        4.41746
C          5.83437       -2.92881        5.80098
C          5.63047       -1.58747        6.18999
C          5.45955       -0.57762        5.23946
Si         5.99660       -4.30094        7.06192
C          7.27403       -5.57847        6.43804
C          7.48402       -6.76935        7.37946
C          8.47250       -7.79686        6.87089
F          9.71496       -7.27576        6.66484
F          8.62704       -8.82718        7.76132
F          8.08306       -8.36127        5.69252
C          6.58115       -3.62931        8.73386
C          4.34169       -5.19059        7.31897
H          2.46310       -1.32987       -1.01023
H          1.82591       -0.16658       -0.05907
H          4.32841       -0.14086       -0.12659
H          4.21496       -1.71890        0.66047
H          3.14251       -0.70943        2.64651
H          2.95153        0.83445        1.79783
H          6.06993       -0.22267        1.57601
H          6.63139        1.10696        3.10681
H          4.59151        1.40767        3.58804
H          3.54969        3.02820        2.06256
H          5.71050        5.23256       -0.96078
H          7.22244        1.45249        0.50668
H          5.74264       -2.42083        2.40833
H          6.02185       -4.22546        4.06313
H          5.60876       -1.32553        7.25272
H          5.30572        0.45777        5.56471
H          8.22747       -5.05219        6.27616
H          6.94774       -5.93895        5.44967
H          6.54434       -7.31392        7.55801
H          7.85970       -6.44408        8.36150
H          7.55189       -3.12197        8.64167
H          6.68339       -4.43310        9.47796
H          5.86305       -2.90173        9.13789
H          3.97568       -5.61472        6.37261
H          3.58325       -4.47670        7.67139
H          4.40649       -6.00307        8.05826
