36

C          1.93786       -2.88380        2.24135
C          1.32762       -1.87161        1.26399
C          2.23994       -0.64909        1.07827
Al         2.75844        0.63484        2.52514
S          1.13667        2.51681        2.63484
O          0.07465        2.46891        1.60854
O          0.74596        2.89085        4.01319
C          2.13393        4.08909        2.08543
F          2.60002        3.97768        0.81575
F          1.32787        5.18131        2.12922
F          3.19441        4.33233        2.89565
C          3.16485        0.27270        4.47889
C          4.50634        0.35177        4.90059
C          4.88959        0.15124        6.23145
C          3.92300       -0.12557        7.20288
C          2.57965       -0.18218        6.82983
C          2.20710        0.01876        5.48769
C          0.77285       -0.05816        5.06977
O          0.41570       -0.31438        3.93729
O         -0.17306        0.14119        6.04007
C          1.02009       -2.55388       -0.08016
H          2.10822       -2.42539        3.22516
H          2.90934       -3.24762        1.86485
H          1.28466       -3.75960        2.38205
H          0.37343       -1.52765        1.69439
H          1.81106        0.01013        0.29939
H          3.20849       -0.98625        0.65398
H          4.04446        1.48845        2.00255
H          5.27499        0.59285        4.15988
H          5.94337        0.21308        6.51524
H          4.21086       -0.29503        8.24226
H          1.83313       -0.42566        7.59266
H          0.27234        0.51504        6.82033
H          1.94935       -2.91649       -0.55195
H          0.54691       -1.84931       -0.78019
H          0.34521       -3.41814        0.04103
