31

N          4.33385       -5.23805       -2.03940
C          4.12524       -3.91375       -1.41986
C          4.80901       -3.82172       -0.05897
C          4.62253       -2.45811        0.61978
C          5.23678       -2.38033        2.02924
Al         7.25726       -2.49769        2.15885
C          8.15391       -1.06617        1.03842
C          7.62104        0.37774        1.07978
C          7.98773        1.07534        2.39664
C          8.10284        1.22036       -0.11452
Br         7.75257       -2.21949        4.53538
H          3.73696       -5.34393       -2.86139
H          4.04448       -5.96427       -1.38071
H          3.05265       -3.65596       -1.29672
H          4.55417       -3.15666       -2.09785
H          5.88073       -4.05149       -0.16567
H          4.39640       -4.60742        0.60187
H          3.53568       -2.23226        0.63580
H          5.07224       -1.68386       -0.02954
H          4.78692       -3.16423        2.66684
H          4.93951       -1.42515        2.49930
H          7.86856       -3.95882        1.75323
H          8.06296       -1.44998        0.00139
H          9.24263       -1.05769        1.24100
H          6.51575        0.34312        1.02355
H          9.08367        1.16540        2.48585
H          7.64091        0.49869        3.26502
H          7.56156        2.09086        2.45097
H          9.20297        1.29877       -0.10806
H          7.69163        2.24505       -0.09365
H          7.81138        0.75532       -1.06870
