17

I          3.16073       -0.35017       -1.98060
C          2.76065       -0.38182        0.10326
S          1.82700        0.82587        0.72690
O          0.83835        1.35342       -0.20175
O          1.45163        0.52433        2.10790
F          2.76956        2.23548        0.97841
C          3.60842       -1.27591        0.95821
C          5.13980       -1.12208        0.90358
S          5.72656        0.44942        1.62909
C          7.51089        0.13951        1.51718
H          3.41075       -2.33507        0.69410
H          3.26186       -1.14646        1.99614
H          5.48204       -1.17232       -0.14319
H          5.60816       -1.94985        1.46402
H          8.01860        1.01911        1.93520
H          7.83181        0.01278        0.47252
H          7.80884       -0.74758        2.09743
