27

C          2.62353        0.12223        2.06995
B          2.77161        0.00167        0.43290
C          3.49343        1.32692       -0.18366
C          4.63032        1.24780       -1.01894
C          5.24466        2.38156       -1.56439
C          4.74866        3.66453       -1.29781
C          3.62606        3.77332       -0.47511
C          3.01706        2.62995        0.06525
C          3.05018        5.12288       -0.15843
F          3.75600        6.15772       -0.70788
F          1.76191        5.26426       -0.60637
F          2.99967        5.37112        1.18810
C          6.45555        2.27117       -2.44349
F          6.85254        0.99120       -2.66981
F          6.26017        2.83791       -3.68173
F          7.54771        2.92432       -1.91995
C          1.28843       -0.18957       -0.26801
H          3.59262        0.24654        2.58533
H          2.15430       -0.78624        2.48822
H          1.98636        0.97166        2.38617
H          3.49199       -0.97217        0.14756
H          5.03715        0.25838       -1.23734
H          5.22488        4.54977       -1.71681
H          2.14063        2.75660        0.70697
H          0.61158        0.66386       -0.06710
H          0.78262       -1.09041        0.12409
H          1.33728       -0.30231       -1.36567
