29

Cl         1.17844       -0.20490       -0.70447
Al         3.37513       -0.30141       -0.46504
C          3.74663       -0.78916        1.55146
C          3.55075       -2.25550        2.01384
C          3.71937       -2.61223        3.53019
F          4.93483       -2.25713        3.99995
F          2.78111       -2.01927        4.29697
F          3.59454       -3.95811        3.71050
F          2.28648       -2.66230        1.67810
F          4.44455       -3.05019        1.34252
F          5.08739       -0.47739        1.85993
F          2.98637        0.00040        2.42667
C          4.16292        1.51314       -0.79722
C          5.69553        1.56065       -0.90162
C          6.28754        2.88859       -1.41248
C          6.03873        4.09323       -0.49970
C          6.62095        5.39748       -1.05122
H          3.99665       -1.47330       -1.39538
H          3.80021        2.21850       -0.02989
H          3.71901        1.85924       -1.75099
H          6.04278        0.75792       -1.57559
H          6.14157        1.32940        0.08151
H          5.86533        3.10526       -2.41157
H          7.37901        2.77504       -1.55744
H          6.46959        3.88594        0.49537
H          4.95527        4.21145       -0.34220
H          7.70916        5.31752       -1.20150
H          6.43880        6.24695       -0.37551
H          6.17464        5.64688       -2.02662
