32

N          5.79636        0.42327       -2.29027
C          4.94719        0.39017       -1.08027
C          5.57039       -0.47401        0.01793
C          4.75586       -0.51775        1.31989
Al         5.42961       -1.86536        2.65956
S          3.75656       -1.81503        4.42094
O          2.43722       -2.29186        3.92191
O          4.24464       -2.42438        5.68965
C          3.44064       -0.05857        4.86279
C          7.21447       -1.47920        3.51999
C          7.48880       -0.06986        4.05679
C          8.89460        0.06215        4.64654
S          9.28928        1.69252        5.40921
H          5.31225        0.90729       -3.04881
H          5.94435       -0.53442       -2.61747
H          3.92093        0.01761       -1.27456
H          4.84338        1.42502       -0.71316
H          6.59284       -0.10396        0.20761
H          5.69234       -1.49887       -0.38348
H          3.71149       -0.79827        1.08961
H          4.70560        0.49824        1.75273
H          5.35158       -3.39711        2.12710
H          3.09705        0.47939        3.97066
H          4.35665        0.38880        5.26841
H          2.65218       -0.08950        5.62657
H          7.98460       -1.74252        2.76827
H          7.33431       -2.21413        4.33644
H          6.75868        0.20177        4.83611
H          7.37198        0.68094        3.25472
H          9.66080       -0.16738        3.89186
H          9.02775       -0.65008        5.47498
H          9.06334        2.43679        4.30062
