31

C          0.22354        0.67154       -0.02018
C          1.73559        0.48185        0.13349
C          2.57071        1.39641       -0.77046
C          4.08152        1.14998       -0.66371
C          4.95066        2.05336       -1.53029
P          6.67058        1.24333       -1.85219
C          8.29611        0.32008       -2.32744
C          8.39174       -0.99909       -1.58462
N          9.40118       -1.91550       -2.18038
S          6.89376        2.62104       -3.97905
H         -0.34480        0.00812        0.64956
H         -0.09966        0.45945       -1.05104
H         -0.07355        1.70724        0.20711
H          1.99741       -0.56895       -0.07981
H          2.02363        0.65297        1.18546
H          2.34454        2.45149       -0.53110
H          2.26114        1.25500       -1.82150
H          4.28263        0.09885       -0.95554
H          4.38903        1.23010        0.39445
H          5.11064        3.04557       -1.07610
H          4.50706        2.20728       -2.52407
H          7.40680        2.38191       -1.27462
H          5.93081        0.16540       -2.59365
H          6.59433        0.52281       -0.57769
H          9.15897        0.97644       -2.13625
H          8.22972        0.15396       -3.41352
H          7.37700       -1.45062       -1.56302
H          8.68139       -0.82589       -0.53428
H          9.21700       -1.97235       -3.18527
H          9.25751       -2.86268       -1.81840
H          6.24970        1.72018       -4.76127
