44

N          4.33075       -2.15958        2.44154
C          4.01068       -1.11709        1.44489
C          4.82932        0.15124        1.69128
C          4.57831        1.24904        0.65318
Ga         5.51312        3.01473        0.92625
S          3.92891        3.85171        2.71724
O          2.55422        4.10531        2.23358
O          4.05946        3.01602        3.93634
C          4.45513        5.60586        3.48271
C          4.32366        6.84599        2.57044
F          3.03995        7.10225        2.25867
F          4.82297        7.96635        3.18077
F          5.02114        6.66971        1.42700
F          3.70080        5.82280        4.59687
F          5.76950        5.52215        3.86876
C          7.32605        3.13645        1.80466
C          7.54725        2.37252        3.11513
C          8.93931        2.60133        3.71994
C          9.17552        1.82378        5.01453
N         10.51155        2.09160        5.53858
C         11.00311        1.45918        6.66423
N         10.46858        0.49976        7.34269
N         12.25068        1.97296        7.06987
H          3.68488       -2.94556        2.34973
H          4.17725       -1.77813        3.37797
H          2.93699       -0.84101        1.42816
H          4.25042       -1.52099        0.44619
H          5.89593       -0.12851        1.71291
H          4.59009        0.53185        2.69963
H          3.50037        1.47301        0.58782
H          4.87452        0.89700       -0.35179
H          5.28137        4.07075       -0.23648
H          7.52855        4.20956        1.95980
H          8.05854        2.80138        1.04653
H          7.40833        1.29069        2.94882
H          6.77995        2.66146        3.85152
H          9.06860        3.68153        3.91759
H          9.71622        2.32163        2.98756
H          9.09159        0.74213        4.81887
H          8.39356        2.08131        5.75432
H         10.83460        3.04631        5.40744
H          9.51328        0.31624        7.02554
H         12.90233        2.11110        6.30035
H         12.64902        1.37779        7.79183
