39

C          6.09914       -2.51491       -3.05361
C          5.49340       -1.46870       -2.11454
C          6.37284       -0.22758       -1.93262
C          5.77749        0.82138       -0.98835
C          6.65567        2.07097       -0.81333
C          6.07229        3.13135        0.12515
Ta         7.24814        4.95033        0.43161
S          5.51412        6.78154        0.38781
O          4.67365        7.50748        1.35673
O          6.95404        7.28844        0.21006
C          4.73505        7.39403       -1.27425
F          3.61489        6.66488       -1.53577
F          4.36191        8.69286       -1.17130
F          5.55398        7.29019       -2.33869
C          9.15243        5.26229       -0.59320
C          9.39940        6.33115       -1.66151
N          9.69993        7.63511       -1.03552
H          5.44793       -3.39498       -3.16135
H          7.07402       -2.86453       -2.68040
H          6.26487       -2.09704       -4.05849
H          5.30540       -1.92507       -1.12750
H          4.50548       -1.15861       -2.49595
H          6.55750        0.23403       -2.91942
H          7.36435       -0.53701       -1.55569
H          5.59961        0.36412        0.00143
H          4.78522        1.13025       -1.36286
H          6.82436        2.51953       -1.80896
H          7.64926        1.76149       -0.44483
H          5.98615        2.71673        1.15157
H          5.05287        3.40194       -0.20217
H          8.29767        3.69587        1.23638
H          6.55996        5.11582       -1.21758
H          6.70779        5.55936        2.04983
H          9.20223        4.25091       -1.05645
H          9.97301        5.29059        0.14833
H          8.52995        6.36874       -2.34678
H         10.27945        6.06334       -2.27830
H          8.86988        7.92608       -0.51177
H          9.82694        8.33672       -1.76802
