41

C          6.35626        1.31140        2.02788
C          5.38857        0.29790        1.40798
C          5.85228       -0.24543        0.05065
C          4.89126       -1.24369       -0.60676
B          5.37843       -1.79567       -2.08140
C          4.18613       -2.58991       -2.88970
C          3.09470       -3.09825       -2.14349
C          2.05182       -3.83978       -2.70018
C          2.04946       -4.12063       -4.07053
C          3.09698       -3.63989       -4.84891
C          4.14343       -2.88207       -4.28708
C          5.16667       -2.42232       -5.30100
O          5.22477       -2.88411       -6.43604
O          6.01225       -1.44399       -4.93972
C          6.79293       -2.66275       -1.98550
C          6.78359       -3.96439       -1.15811
C          6.17026       -5.16188       -1.88417
N          6.30578       -6.39674       -1.07863
H          5.99687        1.68952        2.99779
H          6.49946        2.17792        1.36355
H          7.34760        0.86074        2.19256
H          4.39468        0.76373        1.28831
H          5.24252       -0.54621        2.10447
H          6.84539       -0.71174        0.18281
H          6.01612        0.60509       -0.63691
H          3.90217       -0.75366       -0.69886
H          4.73366       -2.08045        0.10419
H          5.65052       -0.73002       -2.70151
H          3.06989       -2.90526       -1.06932
H          1.24083       -4.20210       -2.06174
H          1.24229       -4.70039       -4.52420
H          3.13823       -3.83412       -5.92191
H          5.84806       -1.18653       -3.97212
H          7.55436       -1.99256       -1.54677
H          7.18294       -2.90262       -2.99155
H          6.24940       -3.82378       -0.20255
H          7.82111       -4.24499       -0.88173
H          6.64128       -5.24486       -2.88470
H          5.09825       -4.99256       -2.05571
H          7.29984       -6.60725       -0.95665
H          5.91221       -7.18705       -1.59332
