35

N          1.36959        0.77684       -0.84842
C          2.74547        0.26169       -1.03655
C          2.72102       -1.26928       -1.18803
C          4.04645       -1.95637       -1.42169
S          4.77263       -2.73090       -0.16034
O          3.86657       -2.97560        0.97227
O          5.71345       -3.77792       -0.58424
C          6.03539       -1.54201        0.74686
C          6.73631       -1.94113        2.08203
C          7.65224       -3.22152        2.16049
C          8.90707       -3.32701        1.22044
F          9.69726       -2.23667        1.34190
F          9.63688       -4.40600        1.61724
F          8.58836       -3.49534       -0.06147
F          8.16013       -3.23511        3.44055
F          6.91449       -4.33963        2.00198
F          7.53716       -0.88667        2.49143
F          5.79377       -2.11319        3.04831
F          7.03730       -1.19037       -0.13365
F          5.36568       -0.37399        1.05812
C          4.55290       -2.17981       -2.82851
C          4.80480       -0.91051       -3.66288
N          5.91976       -0.12625       -3.11272
H          1.40275        1.77300       -0.62260
H          0.96571        0.32190       -0.02545
H          3.42515        0.51632       -0.20524
H          3.15541        0.72924       -1.94564
H          2.04260       -1.51268       -2.02881
H          2.25254       -1.68637       -0.28073
H          3.81430       -2.78628       -3.39456
H          5.47805       -2.77325       -2.79383
H          3.85920       -0.33567       -3.73090
H          5.05835       -1.21531       -4.69473
H          5.88173       -0.19475       -2.09090
H          5.81621        0.86281       -3.34037
