30

N          1.73901        0.79092       -0.05190
C          3.19547        0.58966        0.11910
Ta         3.27436        2.73495        0.43295
C          1.46766        4.06610        0.68283
O          0.92782        4.29345        2.08191
C         -0.05755        5.14632        2.20552
F          0.22189        6.43643        1.78567
F         -1.21763        4.80802        1.51915
F         -0.41960        5.24748        3.52035
C          5.37986        3.23758       -0.09908
C          5.88365        2.74688       -1.46926
C          7.38462        2.95555       -1.69399
N          7.80492        2.48825       -3.03371
H          1.47526        1.26252       -0.91419
H          1.31122        1.23367        0.77164
H          3.62316        0.29852       -0.85766
H          3.40248       -0.20336        0.84796
H          2.54512        2.14193        1.97417
H          2.57557        3.31338       -1.16146
H          3.78263        3.73471        1.82006
H          0.59060        3.78347        0.07827
H          1.79571        5.06121        0.32846
H          6.00518        2.80301        0.70861
H          5.52526        4.33102       -0.01732
H          5.33722        3.25098       -2.28330
H          5.67538        1.66601       -1.59455
H          7.93219        2.45878       -0.86690
H          7.61539        4.03168       -1.62427
H          7.52953        1.50938       -3.14407
H          8.82387        2.50403       -3.11038
