26

F          3.74609        1.82057        0.41901
B          2.85260        0.68396        0.58821
C          3.68068       -0.55380        1.23991
C          5.08059       -0.49193        1.38936
C          5.81345       -1.54452        1.95357
C          5.17361       -2.70874        2.39179
C          3.78308       -2.78610        2.25940
C          3.05275       -1.73211        1.69374
C          3.07933       -4.04108        2.68717
F          3.74401       -4.71596        3.67886
F          1.81915       -3.81864        3.15158
F          2.94567       -4.94498        1.65735
C          7.30758       -1.46874        2.06740
F          7.79490       -0.20221        1.97456
F          7.77478       -1.97745        3.25464
F          7.94836       -2.19441        1.08775
C          1.54161        1.12507        1.47635
N          0.41589        0.17380        1.28533
H          2.42936        0.31067       -0.53113
H          5.59284        0.41455        1.06250
H          5.73904       -3.52623        2.83719
H          1.96387       -1.80124        1.62292
H          1.27996        2.16314        1.18024
H          1.77321        1.15814        2.55745
H          0.30746        0.01983        0.27983
H         -0.46703        0.56638        1.61893
