38

N          3.99388        1.62893        0.50961
In         2.64012       -0.03606        0.57896
C          1.81658       -0.37605       -1.56261
F          0.89363        0.57091       -2.00379
F          2.79770       -0.36617       -2.55189
F          1.16068       -1.59462       -1.75875
C          3.99970       -1.76591        0.91429
C          5.30310       -1.53849        1.40107
C          6.18660       -2.58965        1.66707
C          5.80984       -3.93292        1.45665
C          4.51929       -4.16559        0.94102
C          3.64366       -3.10638        0.67581
Si         6.93531       -5.33406        1.97107
C          7.03025       -5.31831        3.88152
C          7.80026       -6.48164        4.51378
C          7.88104       -6.42030        6.02439
F          6.65447       -6.40018        6.61747
F          8.54128       -7.50721        6.53749
F          8.55072       -5.31864        6.46892
C          6.25423       -7.01063        1.41023
C          8.69103       -5.13089        1.28586
H          3.46775        2.50700        0.52734
H          4.45817        1.63054       -0.40414
H          1.30799        0.20894        1.70298
H          5.63131       -0.50859        1.57620
H          7.18625       -2.35631        2.05274
H          4.18635       -5.19033        0.74589
H          2.65491       -3.34125        0.26921
H          5.99567       -5.30269        4.25806
H          7.47819       -4.35794        4.18295
H          8.84025       -6.52472        4.15547
H          7.33496       -7.44885        4.27096
H          5.26842       -7.21518        1.85182
H          6.92800       -7.83300        1.69268
H          6.14027       -7.03647        0.31702
H          9.10847       -4.14808        1.54708
H          8.68455       -5.20597        0.18915
H          9.37522       -5.90237        1.67061
