12

N          0.93411        0.06910        0.03148
C          2.35161        0.11315        0.00387
C          2.94798       -1.09773        0.75105
C          4.48038       -1.13832        0.77620
H          0.58105        0.89026       -0.47959
H          2.85410        1.02405        0.48666
H          2.85295        0.08892       -1.02729
H          2.54444       -2.01104        0.27834
H          2.54427       -1.08490        1.77929
H          4.89110       -1.16987       -0.24689
H          4.87145       -2.01564        1.31880
H          4.89148       -0.23688        1.26067
