38

C          0.79044       -0.45533        0.10175
C          2.27838       -0.35082        0.45315
C          2.78557        1.09536        0.54949
C          4.25578        1.23853        0.91315
P          4.89393        3.08388        0.80758
C          4.65556        3.34196        2.79205
C          4.78201        4.80772        3.17064
C          4.52110        5.21153        4.61766
O          4.61601        6.34042        5.05861
O          4.15712        4.18646        5.44740
C          6.78480        2.53880        1.05501
C          7.56975        2.66498       -0.24033
C          9.08750        2.50298       -0.22065
O          9.78926        2.59345       -1.23199
N          9.63703        2.23556        1.00475
H          0.45378       -1.50135        0.03186
H          0.57820        0.02954       -0.86382
H          0.16958        0.04582        0.86063
H          2.87527       -0.89111       -0.30204
H          2.46745       -0.86689        1.41081
H          2.16729        1.64322        1.28457
H          2.60666        1.60487       -0.41651
H          4.87800        0.67223        0.19782
H          4.44892        0.82234        1.91814
H          5.00983        2.93458       -0.67006
H          3.50113        3.59600        0.64541
H          5.40049        4.48536        0.68732
H          5.38577        2.70931        3.32595
H          3.63698        2.95990        2.97944
H          4.09793        5.41463        2.55074
H          5.78446        5.19348        2.92022
H          4.15526        3.38598        4.87216
H          6.83839        1.51719        1.46842
H          7.16802        3.24469        1.81249
H          7.37834        3.65698       -0.68982
H          7.20156        1.94823       -0.99311
H          9.04895        2.22140        1.83000
H         10.64440        2.17850        1.08492
