37

C          1.10801       -0.04575       -0.60315
C          2.61830        0.08116       -0.36675
C          3.02163        1.38599        0.34628
C          4.51708        1.56726        0.62050
In         5.19305        3.37968        1.82896
C          3.95796        5.18699        1.19243
C          2.46871        4.92254        1.04283
C          1.56457        6.07771        0.62412
O          1.85514        7.24243        0.49022
O          0.24817        5.69402        0.37754
C          7.25215        3.84083        1.00185
C          7.63462        5.32373        0.96349
C          8.93709        5.62792        0.21327
N          9.26216        7.07245        0.24775
H          0.83944       -0.99028       -1.10130
H          0.73331        0.77760       -1.23213
H          0.55459       -0.00418        0.34853
H          3.15264        0.01937       -1.33095
H          2.97453       -0.77668        0.22976
H          2.44762        1.44812        1.29076
H          2.65356        2.22507       -0.27302
H          5.06312        1.62290       -0.33895
H          4.90776        0.67486        1.14174
H          5.08075        3.09449        3.59036
H          4.36429        5.53597        0.22904
H          4.12530        6.00339        1.91129
H          2.03588        4.52851        1.98372
H          2.28928        4.11951        0.30439
H          0.19888        4.73066        0.51227
H          7.22971        3.43706       -0.02735
H          8.02291        3.26484        1.54248
H          7.72486        5.72963        1.98576
H          6.82828        5.91068        0.48370
H          8.84821        5.22637       -0.81759
H          9.77068        5.08528        0.69101
H          8.45871        7.60025       -0.10212
H         10.03303        7.27883       -0.39065
