45

C          5.05079        3.39496        0.32178
C          4.50249        1.96573        0.28065
C          5.16651        1.02809        1.29454
C          4.62272       -0.40413        1.21680
C          5.12483       -1.37278        2.31328
C          4.69442       -0.76267        3.72776
O          3.47142       -0.48395        3.84596
O          5.60426       -0.59223        4.59133
C          4.48115       -2.77790        2.12390
C          2.93546       -2.87910        2.04926
C          2.41983       -2.95911        0.60467
C          2.43515       -4.09139        2.84671
C          6.66312       -1.51482        2.20368
C          7.31542       -2.61068        3.06266
C          8.82438       -2.41787        3.29023
C          9.18798       -1.14159        4.06339
N          8.47307       -1.07998        5.34232
H          4.55547        4.04732       -0.41386
H          6.13146        3.41127        0.10966
H          4.90724        3.84245        1.31718
H          4.62798        1.55429       -0.73705
H          3.41540        1.98285        0.46886
H          5.00004        1.41634        2.31306
H          6.25753        1.03833        1.12887
H          4.86088       -0.82717        0.22020
H          3.52691       -0.34657        1.29923
H          4.82610       -3.40601        2.95970
H          4.91284       -3.23592        1.21006
H          2.53822       -1.97252        2.53522
H          2.80050       -3.86570        0.10139
H          2.73630       -2.09303        0.00744
H          1.31865       -3.00155        0.57716
H          2.86584       -5.03131        2.45811
H          1.33786       -4.18302        2.79467
H          2.71682       -4.00244        3.90554
H          7.10055       -0.54611        2.48108
H          6.92741       -1.69121        1.14090
H          7.15907       -3.59846        2.59858
H          6.81571       -2.63825        4.04108
H          9.35694       -2.40406        2.32120
H          9.20749       -3.28387        3.85670
H          9.00145       -0.26105        3.41204
H         10.27405       -1.15133        4.26375
H          7.46613       -0.92760        5.15544
H          8.78410       -0.26026        5.86544
