24

C          7.53619        0.32217        1.97756
S          6.61637        1.62607        1.11292
C          5.88056        0.61964       -0.23568
C          4.94505        1.45934       -1.10663
Al         5.80048        2.93151       -2.24143
C          4.52255        3.29270       -3.81223
O          3.10330        3.47442       -3.35403
C          2.20331        3.75319       -4.26948
F          2.06392        2.79463       -5.25750
F          0.97731        3.87285       -3.67931
F          2.41812        4.93254       -4.95642
N          7.38067        2.40508       -3.09541
H          8.00917        0.77790        2.85766
H          8.32235       -0.10644        1.33823
H          6.86715       -0.48446        2.31431
H          5.38441       -0.23684        0.26094
H          6.71825        0.22572       -0.83689
H          4.11810        1.85286       -0.48898
H          4.46648        0.76501       -1.82410
H          6.08724        4.31476       -1.41395
H          4.50892        2.46912       -4.54746
H          4.79904        4.21127       -4.35553
H          7.46428        1.48003       -3.51514
H          8.26135        2.59962       -2.62204
