72

C          0.60172        0.34064       -0.72699
C          2.09869        0.67435       -0.67878
C          3.00441       -0.31896       -1.41645
B          4.60442        0.07231       -1.43043
C          5.23348        0.18187        0.06591
C          6.04825        1.26668        0.45751
C          6.64960        1.34543        1.71431
C          6.46176        0.33499        2.68097
C          5.64536       -0.75370        2.31114
C          5.05673       -0.81981        1.04688
Si         7.41351        0.38344        4.28132
C          9.25538        0.04680        3.88227
C          9.40592       -1.12066        2.89934
C         10.80020       -1.70025        2.68983
C         11.74786       -1.05801        1.60632
C         12.26855        0.42694        1.72492
C         13.13555        0.91491        2.95233
C         14.52694        0.24588        3.30043
C         15.66894        0.23394        2.21713
F         15.86428        1.46072        1.69922
F         16.81326       -0.15769        2.82155
F         15.40644       -0.62622        1.22430
F         15.01196        0.96459        4.35548
F         14.33335       -1.02856        3.71129
F         13.38491        2.23614        2.71920
F         12.39099        0.82760        4.08279
F         13.02009        0.65973        0.60965
F         11.19509        1.25948        1.67854
F         12.85682       -1.84945        1.49560
F         11.08545       -1.09600        0.41886
F         11.50918       -1.77725        3.86913
F         10.66744       -3.00219        2.24385
C          7.32391        2.07118        5.13169
C          6.82504       -0.94402        5.49624
C          5.45856       -1.04771       -2.29909
C          6.96542       -0.78009       -2.38137
C          7.68879       -1.77066       -3.30932
C          9.20224       -1.77791       -3.28740
C          9.93062       -0.44888       -3.66729
F          9.75844        0.50268       -2.72918
F         11.26380       -0.64862       -3.80868
F          9.46088        0.02935       -4.84735
F          9.68960       -2.13986       -2.05162
F          9.67880       -2.72576       -4.18546
H         -0.01256        1.08004       -0.18584
H          0.40208       -0.64727       -0.28067
H          0.23827        0.30310       -1.76702
H          2.41791        0.74354        0.37595
H          2.26090        1.68270       -1.09925
H          2.65128       -0.40722       -2.46360
H          2.84486       -1.32808       -0.97860
H          4.75060        1.18039       -1.98339
H          6.21129        2.07083       -0.26624
H          7.28194        2.21040        1.94603
H          5.46752       -1.56721        3.02230
H          4.43352       -1.68754        0.80672
H          9.79311       -0.16020        4.82016
H          9.67806        0.97144        3.46790
H          8.98935       -0.86209        1.91499
H          8.82164       -1.98827        3.24571
H          7.61677        2.87649        4.44376
H          7.98984        2.11240        6.00649
H          6.29878        2.27754        5.46988
H          6.94734       -1.95877        5.09200
H          5.76086       -0.80890        5.73543
H          7.39653       -0.88465        6.43398
H          5.04453       -1.08582       -3.32605
H          5.30807       -2.06441       -1.87918
H          7.40696       -0.83475       -1.37341
H          7.12894        0.25195       -2.73161
H          7.37649       -1.61900       -4.35400
H          7.40531       -2.80202       -3.04123
