13

N          0.97000       -0.07394       -0.00460
C          0.52364       -0.65460       -1.22489
C         -1.01277       -0.67102       -1.26023
C         -1.59080       -1.28131       -2.54139
S          2.70399       -0.09354       -0.05664
H          0.86525       -1.72737       -1.40643
H          0.86479       -0.11816       -2.17150
H         -1.36928        0.36574       -1.13636
H         -1.36979       -1.22763       -0.37701
H         -1.25668       -0.72225       -3.43024
H         -2.69315       -1.28128       -2.54155
H         -1.25641       -2.32349       -2.66835
H          2.92162        0.47366        1.15676
