58

N          3.60268        1.16458        0.66565
C          2.46573        0.32318        1.14568
C          3.06568       -1.06441        1.24677
Nb         5.23874       -0.48329        1.33493
C          6.15113        0.27515       -0.60947
C          6.40480        1.61996       -0.97145
C          6.97151        1.98324       -2.19667
C          7.32543        1.01057       -3.15883
C          7.06827       -0.33358       -2.82655
C          6.49944       -0.68310       -1.59320
Si         8.18004        1.50866       -4.74850
C          9.85680        2.33017       -4.33970
C         10.74012        1.49478       -3.40575
C         12.08790        2.11755       -3.11877
F         11.98897        3.34918       -2.54169
F         12.83440        1.34830       -2.27468
F         12.83822        2.28353       -4.25365
C          8.50135        0.00914       -5.86072
C          7.18095        2.78713       -5.72685
C          6.49386       -1.04009        3.10725
C          7.89704       -1.60108        2.85012
C          8.83913       -0.58245        2.19514
C         10.26423       -1.09736        1.97748
C         11.19197       -0.06143        1.33631
H          3.70017        2.05540        1.14553
H          3.59091        1.32574       -0.34118
H          1.57763        0.44450        0.48744
H          2.19375        0.68537        2.14592
H          2.97734       -1.63376        0.29869
H          2.66452       -1.68162        2.06188
H          5.97900        1.08679        1.78300
H          4.54236        0.32803        2.77540
H          5.88182       -2.20885        0.95759
H          6.17584        2.40631       -0.24493
H          7.15555        3.04515       -2.40197
H          7.32611       -1.12819       -3.53505
H          6.34354       -1.74331       -1.37222
H          9.65219        3.30683       -3.87263
H         10.38694        2.53867       -5.28340
H         10.94660        0.49757       -3.82376
H         10.24463        1.33772       -2.43604
H          9.12188       -0.74988       -5.36365
H          9.01887        0.31706       -6.78144
H          7.55825       -0.47550       -6.15089
H          6.94717        3.66351       -5.10548
H          6.22752        2.35933       -6.06798
H          7.73424        3.13738       -6.61130
H          5.83395       -1.84110        3.50664
H          6.54158       -0.24975        3.86920
H          7.82390       -2.48652        2.19608
H          8.37006       -1.94034        3.79821
H          8.87070        0.33243        2.81438
H          8.41146       -0.26747        1.22742
H         10.22879       -2.00108        1.34427
H         10.68769       -1.42300        2.94481
H         10.80312        0.26420        0.35937
H         12.20741       -0.45517        1.17632
H         11.27659        0.83738        1.96703
