21

C          1.57083       -3.64987       -0.93291
N          1.87994       -2.58705        0.01725
S          2.39977       -1.24068       -0.52998
O          2.07181       -0.89796       -1.92363
O          2.30017       -0.17719        0.46826
C          4.31659       -1.44724       -0.64187
C          5.20756       -0.38241       -1.35961
C          5.22074        1.11515       -0.86873
C          5.65874        1.43666        0.60554
F          6.86211        0.88740        0.88806
F          5.79204        2.78727        0.71666
F          4.77190        1.03502        1.51332
F          6.14172        1.75815       -1.66600
F          4.02015        1.69073       -1.08166
F          6.52280       -0.80771       -1.30029
F          4.87148       -0.32724       -2.67611
F          4.84078       -1.60790        0.61889
F          4.57174       -2.61837       -1.32734
H          2.36539       -4.41959       -0.96050
H          1.41244       -3.28791       -1.96421
H          0.64511       -4.15558       -0.60757
