48

C          1.31290        0.72315        0.96023
C          2.78846        0.51200        0.60630
C          3.06508       -0.78973       -0.15451
C          4.53788       -0.96477       -0.56861
C          4.90602       -2.25687       -1.24734
C          4.29367       -2.39960       -2.61344
C          3.02888       -3.28256       -2.72994
C          2.56821       -3.38483       -4.19563
C          1.20735       -3.97283       -4.46317
C          0.94961       -5.43514       -3.98030
F          0.90112       -5.51872       -2.63522
F         -0.23129       -5.90547       -4.45825
F          1.92761       -6.26481       -4.42092
F          0.20044       -3.20661       -3.91396
F          0.96029       -3.99722       -5.83766
C          6.39751       -2.49186       -1.26189
C          6.76870       -3.96529       -1.37413
O          8.19704       -4.10963       -1.56588
C          8.60124       -5.44095       -1.76621
C         10.07510       -5.39909       -2.14814
O         10.56512       -6.73249       -2.28639
C         11.91999       -6.76000       -2.67987
H          1.14923        1.66410        1.50976
H          0.93012       -0.09886        1.58506
H          0.68963        0.75590        0.05265
H          3.39379        0.52533        1.53040
H          3.14734        1.36303        0.00124
H          2.42571       -0.81301       -1.05522
H          2.76699       -1.66202        0.45454
H          5.16063       -0.83913        0.33687
H          4.77310       -0.05959       -1.21934
H          5.03757       -2.82154       -3.32495
H          4.02043       -1.39514       -3.05364
H          2.22423       -2.86606       -2.10718
H          3.26219       -4.27399       -2.31579
H          3.30020       -3.95937       -4.78549
H          2.53257       -2.37289       -4.63558
H          6.85166       -2.09878       -0.33528
H          6.93375       -1.96645       -2.10737
H          6.24841       -4.43156       -2.23432
H          6.44992       -4.50702       -0.46286
H          8.01652       -5.92509       -2.57600
H          8.46663       -6.05872       -0.85284
H         10.64471       -4.85737       -1.36769
H         10.19714       -4.84246       -3.09778
H         12.21919       -7.81393       -2.75681
H         12.57375       -6.25436       -1.94157
H         12.07212       -6.27201       -3.66301
