28

S          2.44974        1.04022        1.17174
C          3.14655        0.06754       -0.09878
C          3.29477       -1.34254        0.03983
C          3.98641       -2.15394       -0.92396
C          4.13747       -3.52893       -0.77069
C          3.62266       -4.22969        0.33360
C          2.93072       -3.45384        1.28608
C          2.76781       -2.08209        1.15399
C          3.81380       -5.71547        0.50159
C          3.40477        0.80764       -1.37892
C          4.56182        1.86276       -1.28566
C          4.44731        2.93175       -2.34689
O          5.07745        2.95546       -3.40656
N          3.51694        3.91053       -2.04619
H          1.07433        1.03745        0.91852
H          4.43372       -1.68393       -1.80212
H          4.68666       -4.08349       -1.54067
H          2.49551       -3.94930        2.16217
H          2.21894       -1.52962        1.91869
H          4.27672       -6.15574       -0.39481
H          2.85973       -6.24563        0.67094
H          4.46667       -5.96711        1.35818
H          2.48739        1.35071       -1.69207
H          3.63440        0.11674       -2.20450
H          5.53397        1.36407       -1.37897
H          4.49046        2.32587       -0.28984
H          2.85986        3.73776       -1.29108
H          3.20131        4.49112       -2.81554
