24

C          1.03418       -0.41287        0.03803
C          2.56778       -0.35458        0.15628
C          3.15635       -1.12951        1.32676
Sb         5.44696       -1.16305        1.39252
C          5.56619        1.02229        1.98718
C          5.91656        1.95226        0.83329
N          5.37869       -3.28332        0.84646
H          0.66235        0.16275       -0.82817
H          0.54970       -0.00730        0.94057
H          0.68516       -1.45142       -0.07687
H          2.87319        0.70486        0.22145
H          3.01255       -0.71927       -0.78736
H          2.84277       -2.18646        1.31570
H          2.85343       -0.69843        2.29567
H          5.47283       -0.68389       -0.37529
H          7.25826       -1.27050        1.40312
H          5.36127       -1.62897        3.12720
H          6.32621        1.04977        2.78375
H          4.59167        1.27503        2.43588
H          6.86563        1.65273        0.35832
H          6.02401        3.01104        1.13704
H          5.15118        1.91431        0.04224
H          6.32918       -3.48158        0.50975
H          4.80971       -3.30667       -0.00992
