41

N          1.38101       -1.37810       -1.42695
Sb         2.36361        0.21512       -0.31010
C          3.46274        1.83487        0.80810
C          2.78610        2.81838        1.53770
C          3.48058        3.80938        2.24431
C          4.88268        3.84274        2.24942
C          5.56590        2.85621        1.52027
C          4.86424        1.87432        0.81256
C          5.63880        4.89484        3.02644
C          3.34396       -1.31441        1.07861
C          2.54298       -2.59095        1.29331
C          3.21309       -3.65532        2.18712
C          3.32543       -3.26620        3.66190
N          3.98066       -4.33160        4.41948
C          4.07553       -4.31489        5.79577
N          3.74831       -3.36994        6.61249
N          4.59817       -5.51751        6.31907
H          1.55823       -1.13661       -2.40835
H          0.37431       -1.22039       -1.30133
H          3.75327        0.07396       -1.45488
H          0.96747        0.28919        0.84465
H          1.58556        1.48543       -1.32818
H          1.69027        2.81359        1.55875
H          2.92829        4.57304        2.80287
H          6.66157        2.85870        1.51161
H          5.42314        1.12123        0.24571
H          4.96195        5.67574        3.40113
H          6.40674        5.38271        2.40624
H          6.15775        4.46116        3.89688
H          3.50727       -0.75634        2.01435
H          4.32707       -1.53213        0.62763
H          2.32943       -3.04265        0.31250
H          1.55372       -2.34312        1.72101
H          4.22390       -3.87285        1.80054
H          2.63745       -4.59990        2.12652
H          2.31413       -3.06343        4.06525
H          3.91051       -2.33930        3.76622
H          3.89693       -5.25698        4.00791
H          3.27433       -2.60982        6.11768
H          5.42175       -5.84750        5.81973
H          4.79628       -5.39520        7.30957
