29

C          1.57491        0.63397       -0.49432
Nb         3.70073        0.53068       -0.21973
C          4.47601       -1.32238       -1.26771
C          4.32413       -1.45934       -2.80736
F          5.21831       -0.70380       -3.48588
F          4.48611       -2.74093       -3.25741
F          3.07417       -1.07013       -3.19557
F          5.79987       -1.67167       -1.01192
F          3.68639       -2.40046       -0.78606
C          4.53432        1.44575        1.64635
C          5.77850        2.11596        1.61626
C          6.30745        2.76635        2.72949
C          5.58031        2.82441        3.92871
C          4.35079        2.18153        3.99814
C          3.85555        1.46380        2.89146
C          2.60508        0.67563        3.12963
O          1.74745        0.96437        3.94870
O          2.47882       -0.46161        2.39318
H          1.41888        0.95469       -1.54010
H          1.12146        1.36850        0.18973
H          1.09877       -0.34592       -0.33478
H          4.55031        0.96035       -1.69523
H          4.21886        2.18989       -0.45866
H          4.39140       -0.68436        0.91803
H          6.34074        2.15061        0.67829
H          7.27969        3.26117        2.65684
H          5.97468        3.36121        4.79355
H          3.75435        2.19337        4.91257
H          3.34214       -0.62651        1.87251
