38

C          0.51428       -0.00004       -0.88997
C          1.99695        0.21038       -1.20900
C          2.81106       -1.08743       -1.23401
C          4.29362       -0.88107       -1.56615
C          5.11253       -2.18202       -1.60231
B          6.67555       -1.97397       -1.99956
C          7.64837       -1.24701       -0.88870
C          7.57415       -1.49204        0.66601
C          7.89390       -2.92406        1.21828
C          8.09853       -2.99761        2.78069
F          7.07701       -2.42775        3.45439
F          8.16318       -4.29893        3.15127
F          9.24666       -2.40826        3.17171
F          6.86684       -3.75933        0.93056
F          9.04165       -3.40120        0.67386
F          8.45244       -0.63425        1.29444
F          6.31940       -1.16464        1.10406
F          9.00989       -1.35338       -1.19379
F          7.38516        0.13434       -0.94867
S          7.34910       -3.65787       -2.72129
O          7.71744       -4.67920       -1.71718
O          6.41478       -4.08887       -3.78491
C          8.89744       -3.28554       -3.60612
H         -0.04219        0.94941       -0.87526
H          0.38513       -0.47755        0.09375
H          0.03782       -0.65515       -1.63567
H          2.43889        0.89848       -0.46784
H          2.09494        0.71681       -2.18483
H          2.36611       -1.78337       -1.96841
H          2.72422       -1.58919       -0.25303
H          4.72470       -0.17693       -0.83472
H          4.37668       -0.37882       -2.54633
H          4.66894       -2.84827       -2.36172
H          4.99360       -2.70808       -0.63948
H          6.80250       -1.26065       -2.98495
H          9.66234       -2.97124       -2.88923
H          8.70436       -2.50215       -4.34745
H          9.17556       -4.22790       -4.09473
