31

C          0.91216        0.73750        0.47329
C          2.40612        0.61269        0.78397
C          2.87615       -0.84233        0.82929
C          4.38627       -0.99518        1.09946
C          4.83018       -2.44863        1.16088
C          3.94184       -3.53554        1.25108
C          4.40407       -4.85376        1.32074
C          5.77248       -5.15146        1.31877
C          6.66527       -4.07008        1.24018
C          6.20718       -2.75641        1.16050
C          6.27168       -6.57136        1.43680
C          4.71732       -0.37892        2.58194
O          3.89929       -0.67732        3.47787
O          5.76794        0.31412        2.63171
N          5.16374       -0.22367        0.10956
H          0.58723        1.78956        0.44892
H          0.30229        0.22028        1.23131
H          0.66662        0.29192       -0.50474
H          2.62058        1.07917        1.75831
H          3.00082        1.15443        0.03302
H          2.62765       -1.33539       -0.13061
H          2.32569       -1.35830        1.63025
H          2.86767       -3.35453        1.26987
H          3.67843       -5.67121        1.37992
H          7.74278       -4.26255        1.24934
H          6.92477       -1.93470        1.12848
H          5.52274       -7.29173        1.07633
H          6.49891       -6.83522        2.48370
H          7.19533       -6.72484        0.85893
H          5.66244       -0.85331       -0.52022
H          5.86300        0.28069        0.67704
