47

C          0.60960       -0.87293        1.83805
C          2.13445       -0.97289        1.93501
C          2.82837        0.37722        2.14789
C          4.35828        0.27977        2.24672
C          5.08902        1.61171        2.48109
Al         7.08422        1.40389        2.73132
C          7.97599        0.67617        0.95049
C          7.70340        1.23466       -0.47394
C          7.97907        2.76393       -0.66277
C          7.87767        3.30436       -2.13567
F          6.69989        2.98957       -2.70919
F          7.98140        4.65597       -2.11381
F          8.87255        2.83227       -2.91253
F          7.07194        3.46978        0.07020
F          9.22907        3.08731       -0.23036
F          8.44076        0.57473       -1.43896
F          6.38140        1.03105       -0.77875
F          9.37873        0.68089        1.07736
F          7.63957       -0.68512        0.80561
C          8.09531        3.07075        3.32471
C          7.34256        4.40435        3.38831
C          8.21666        5.53320        3.97307
C          7.53804        6.88239        4.06104
C          8.41002        8.01070        4.69332
F          8.75975        7.69465        5.96439
F          9.54943        8.19435        3.98335
F          7.75209        9.19222        4.72978
F          7.16645        7.34641        2.81650
F          6.38841        6.82676        4.82351
H          0.14110       -1.85808        1.69023
H          0.30765       -0.23065        0.99629
H          0.18214       -0.43433        2.75315
H          2.53194       -1.44185        1.01859
H          2.40710       -1.65177        2.76144
H          2.43546        0.84855        3.06766
H          2.56084        1.06042        1.32117
H          4.73654       -0.19422        1.32363
H          4.61255       -0.42565        3.05870
H          4.68073        2.08847        3.39435
H          4.85360        2.31177        1.65826
H          7.42289        0.16907        3.74811
H          8.99873        3.18917        2.69864
H          8.47668        2.82800        4.33480
H          6.43536        4.30647        4.00529
H          6.99952        4.70412        2.38652
H          9.12376        5.65742        3.36192
H          8.54702        5.25922        4.98691
