36

C          4.12657       -0.73431        0.62521
C          2.89443        0.12492        0.32505
Nb         3.10701        1.31806       -1.58605
C          1.58339        2.00569       -3.01999
C          0.05605        1.93797       -2.89911
C         -0.48364        3.05573       -1.99853
C         -0.64340        1.97918       -4.27133
C          4.99402        1.98964       -2.52176
C          5.42053        3.44576       -2.73319
C          5.76976        4.17783       -1.43883
N          6.23537        5.55331       -1.72264
H          4.03493       -1.32272        1.56095
H          5.02604       -0.10498        0.74312
H          4.33171       -1.44212       -0.19393
H          2.66583        0.76156        1.19032
H          2.01356       -0.52330        0.14441
H          3.86567        2.28011       -0.29336
H          3.21406       -0.47865       -2.01129
H          1.97125        2.20716       -0.54784
H          1.91661        1.38403       -3.88646
H          1.89606        3.04554       -3.26171
H         -0.21303        0.97373       -2.42742
H         -0.29033        4.04094       -2.45708
H          0.02456        3.03319       -1.02506
H         -1.57145        2.96395       -1.84606
H         -0.41515        2.92648       -4.78793
H         -1.74076        1.90117       -4.17737
H         -0.29773        1.15792       -4.91741
H          4.86783        1.49758       -3.51458
H          5.79457        1.42397       -2.00512
H          4.62392        4.01471       -3.24385
H          6.30495        3.51450       -3.40498
H          6.51073        3.57285       -0.87742
H          4.87666        4.23212       -0.80060
H          7.10165        5.51102       -2.26543
H          6.47358        6.02460       -0.84800
