8

B          0.81356        0.11265       -0.00275
C          2.41833       -0.03531       -0.01599
F          3.06329        0.31450        1.17742
F          2.89940       -1.32725       -0.26682
F          3.08473        0.74029       -0.97310
H          0.36828       -0.61868        0.88019
H          0.38840       -0.22623       -1.10611
H          0.53942        1.28963        0.22676
