32

Cl         1.34954        0.15958        0.17471
B          2.97368       -0.72618        0.10997
S          4.01177       -0.27443        1.71996
O          5.11891       -1.21662        1.91138
O          4.26257        1.15756        1.89307
C          2.89107       -0.61702        3.31524
C          2.31381       -2.05233        3.51329
C          1.31085       -2.20533        4.72286
C          1.02320       -3.68824        5.16071
F          0.65398       -4.44972        4.11387
F          2.09535       -4.24898        5.74934
F          0.00960       -3.68995        6.06011
F          1.79157       -1.56494        5.82445
F          0.11530       -1.65318        4.38911
F          1.63857       -2.43183        2.39676
F          3.34411       -2.92099        3.71590
F          3.74869       -0.35910        4.34433
F          1.87345        0.28053        3.38145
C          3.76102       -0.27309       -1.26355
C          5.19809       -0.79604       -1.63610
C          5.39158       -2.34902       -1.76683
C          6.87366       -2.82266       -2.01277
F          7.41373       -2.24880       -3.10819
F          7.66458       -2.56558       -0.95844
F          6.86720       -4.16446       -2.21160
F          4.97602       -2.98334       -0.64466
F          4.66211       -2.80811       -2.82458
F          5.54497       -0.26631       -2.85622
F          6.09525       -0.33121       -0.72371
F          2.96335       -0.65825       -2.34065
F          3.89398        1.10098       -1.36543
H          2.84240       -1.91923        0.17012
