32

C          0.34527        0.06672        0.67123
C          1.86356       -0.05436        0.50056
C          2.64456        1.12839        1.08409
C          4.16445        1.02371        0.91378
C          4.92996        2.22426        1.50116
C          6.44250        2.16589        1.55237
C          7.09946        2.55664        0.25659
C          6.94343        1.62155       -0.95592
C          7.98240        1.89082       -2.04029
N          7.77181        1.02400       -3.22371
N          6.98241        3.08764        2.56365
H         -0.18946       -0.79885        0.25054
H         -0.03867        0.97015        0.17213
H          0.07033        0.14256        1.73512
H          2.10596       -0.15265       -0.57192
H          2.21373       -0.98897        0.97238
H          2.40563        1.22559        2.16005
H          2.29005        2.06452        0.61560
H          4.39247        0.90624       -0.15808
H          4.54041        0.10905        1.40559
H          4.56340        2.35969        2.53645
H          4.57818        3.16054        0.94721
H          8.17575        2.68883        0.46271
H          6.73248        3.58696       -0.08396
H          5.94119        1.71628       -1.40540
H          7.04370        0.57726       -0.60488
H          8.99097        1.77160       -1.59401
H          7.90529        2.93923       -2.37464
H          7.72871        0.05167       -2.90879
H          8.58059        1.07998       -3.84671
H          6.58867        2.85092        3.47611
H          6.65590        4.07773        2.38498
