45

C          0.71218       -0.33276        0.19491
C          2.17829       -0.57050       -0.19269
C          3.01064       -1.30021        0.86859
B          4.58331       -1.62018        0.46624
C          5.41730       -0.20229        0.27045
C          6.91530       -0.29259       -0.07699
C          7.20804       -0.97022       -1.42067
C          8.70191       -1.04745       -1.74895
C          5.29658       -2.56418        1.62310
C          4.71053       -3.97312        1.76909
C          5.40057       -4.84714        2.82404
C          4.82267       -6.25798        2.92790
N          5.52640       -7.03572        3.94560
C          5.23731       -8.35853        4.20069
N          4.27776       -9.07618        3.71642
N          6.13876       -8.94951        5.11050
H          0.14377        0.19123       -0.59320
H          0.64199        0.27107        1.11462
H          0.20000       -1.28776        0.39747
H          2.64533        0.40207       -0.42732
H          2.21565       -1.15008       -1.13284
H          2.47686       -2.24141        1.11502
H          2.98066       -0.69829        1.80475
H          4.57775       -2.27005       -0.60683
H          5.32803        0.39084        1.20581
H          4.93331        0.42172       -0.50786
H          7.44629       -0.85497        0.71425
H          7.38613        0.71264       -0.08974
H          6.68178       -0.41996       -2.22124
H          6.76395       -1.97700       -1.41389
H          9.15743       -0.04388       -1.78189
H          8.88960       -1.53027       -2.72138
H          9.24473       -1.62435       -0.98275
H          5.24156       -2.05871        2.61240
H          6.38037       -2.67702        1.41579
H          4.76018       -4.48203        0.78892
H          3.63587       -3.90745        2.01695
H          5.33399       -4.35731        3.81091
H          6.47809       -4.91825        2.58292
H          4.88103       -6.75682        1.94092
H          3.75521       -6.20609        3.20031
H          6.49419       -6.76322        4.09208
H          3.78222       -8.56555        2.98075
H          6.33901       -8.36180        5.91728
H          5.78574       -9.85997        5.39504
