19

Cl         1.44745        0.41391        0.42935
Nb         3.75257        0.47716       -0.02018
S          4.67133        0.72817       -2.27026
O          3.13908        0.84209       -2.19551
O          5.39689        1.73962       -3.04822
C          4.80779       -0.80471       -3.41259
F          4.09984       -1.85298       -2.94941
F          4.36121       -0.50763       -4.65286
F          6.10512       -1.18249       -3.51236
S          5.43447        0.00104        1.68156
O          6.23782        0.80600        2.61074
O          4.07257       -0.49759        2.14455
C          6.44257       -1.63953        1.67605
F          7.57336       -1.47001        0.94530
F          6.80627       -1.95831        2.93917
F          5.76725       -2.68555        1.16440
H          4.47219        2.00725       -0.49132
H          4.56037       -1.05044       -0.33431
H          4.21440        1.69480        1.13487
