33

S          4.13533       -3.81797       -0.64299
C          5.06055       -2.27823       -1.05632
C          4.07380       -1.25198       -1.61629
C          4.68023        0.15230       -1.69314
Ta         6.04521        0.97091       -3.22237
S          5.03998        1.04560       -5.57661
O          5.08496        0.21863       -6.78216
O          4.00426        0.66168       -4.55408
F          4.44508        2.49691       -6.16545
C          8.04641        0.64643       -4.10222
C          9.06498        1.62639       -4.17649
C         10.28335        1.36965       -4.80170
C         10.55281        0.11570       -5.38337
C          9.57998       -0.87488       -5.33088
C          8.34774       -0.60317       -4.70545
C          7.25604       -1.55943       -4.57249
O          6.22461       -1.25618       -3.95506
O          7.34242       -2.81610       -5.07634
H          5.20676       -4.60976       -0.39924
H          5.83796       -2.51084       -1.79222
H          5.53379       -1.89810       -0.14068
H          3.17570       -1.25190       -0.96668
H          3.73552       -1.58420       -2.61059
H          5.08268        0.44524       -0.70887
H          3.86411        0.87186       -1.93387
H          5.72402        2.70652       -3.56003
H          6.62732        2.08983       -1.97432
H          7.23838        0.31487       -2.06874
H          8.88842        2.61254       -3.73934
H         11.04297        2.15439       -4.85187
H         11.50951       -0.07362       -5.87215
H          9.79615       -1.85176       -5.78210
H          8.18349       -2.88810       -5.56111
