28

C          6.11196       -2.12441       -1.11659
C          5.22138       -0.92746       -0.76806
C          5.71583       -0.12462        0.44580
C          4.84954        1.09206        0.81157
Al         5.52143        2.07500        2.42649
S          3.85681        3.84893        2.83250
O          2.45749        3.41762        2.86262
O          4.26342        4.85307        3.81909
F          3.94660        4.72428        1.35331
C          7.24690        3.08582        2.24681
C          7.46217        3.81493        0.92841
N          8.78913        4.49118        0.87305
H          5.73409       -2.68191       -1.98726
H          6.17706       -2.82835       -0.27219
H          7.13801       -1.79872       -1.34888
H          4.19208       -1.27273       -0.57024
H          5.15084       -0.25049       -1.63679
H          6.75530        0.19673        0.24500
H          5.78465       -0.81237        1.30961
H          3.81208        0.76384        1.00051
H          4.79411        1.77887       -0.05185
H          5.37358        1.26904        3.82797
H          8.08248        2.38178        2.41904
H          7.28508        3.81063        3.08157
H          6.62818        4.52213        0.76366
H          7.43619        3.09833        0.08915
H          8.86986        5.08419        1.70351
H          8.81413        5.13218        0.07439
