19

N          2.50647       -0.73808        1.57978
C          2.24846       -0.11110        0.26740
C          3.05061        1.17115        0.12118
Sb         5.20009        0.86403       -0.54876
N          7.22014        0.57835       -1.24338
N          5.55376        3.03147       -0.60304
H          1.91242       -1.55887        1.70782
H          2.25994       -0.07574        2.31860
H          1.16335        0.07129        0.09002
H          2.57338       -0.83718       -0.50375
H          3.07889        1.73584        1.06946
H          2.62289        1.82225       -0.65584
H          5.83820        0.93237        1.11704
H          4.95257       -0.90650       -0.56125
H          4.61434        1.02266       -2.27199
H          7.11234        0.32525       -2.23411
H          7.55280        1.55089       -1.27887
H          5.25422        3.40128        0.30749
H          4.88342        3.41563       -1.28041
