42

O          4.40298        1.74332        1.08973
C          3.51984        1.72423        0.05487
O          2.44579        2.32557        0.22424
C          3.83709        1.06725       -1.20184
C          5.08183        0.45338       -1.46052
C          5.32552       -0.10256       -2.70780
C          4.31491       -0.03389       -3.68675
C          3.09094        0.57592       -3.42012
C          2.78897        1.15683       -2.16466
Ta         0.90903        2.22434       -1.47963
S         -0.00658        4.09482       -2.70504
O         -1.31756        4.46151       -3.26296
O          0.30473        4.52858       -1.27506
C          1.17026        5.27831       -3.71809
C          0.51716        6.61998       -4.16613
F         -0.02950        7.26641       -3.11655
F          1.46752        7.44766       -4.70034
F         -0.42250        6.44161       -5.11078
F          2.27546        5.60041       -2.99947
F          1.56862        4.61808       -4.84807
C         -0.34376        2.22560        0.43957
C         -0.92066        3.31521        1.13123
C         -1.61923        3.15034        2.32786
C         -1.79488        1.87820        2.90252
C         -1.24986        0.77628        2.25690
C         -0.53446        0.96102        1.05546
C          0.07543       -0.12889        0.30616
O          0.68545        0.06785       -0.75619
O         -0.01519       -1.41579        0.73272
H          5.19319        1.24678        0.81215
H          5.87526        0.40602       -0.70165
H          6.28178       -0.58071       -2.92616
H          4.49941       -0.47328       -4.67127
H          2.32831        0.60782       -4.20075
H          0.46687        1.33963       -2.95076
H         -0.85391        2.12121       -1.81543
H          2.23048        3.19505       -2.23648
H         -0.81453        4.31713        0.71158
H         -2.03981        4.02369        2.83474
H         -2.34697        1.75858        3.83624
H         -1.39158       -0.21707        2.70505
H         -0.51825       -1.41215        1.56657
