97

C          1.93974       -2.05216       -1.01771
C          2.37794       -0.62822       -0.66708
C          3.62933       -0.17630       -1.42628
C          4.07343        1.25021       -1.09033
C          5.33510        1.69400       -1.83675
C          5.76771        3.12784       -1.51687
C          7.03648        3.56682       -2.25812
C          7.46491        5.00970       -1.95098
Si         9.00387        5.62149       -2.88955
C          8.70637        5.54859       -4.74358
C          7.45430        5.88957       -5.29497
C          7.22944        5.87665       -6.67383
C          8.24603        5.52904       -7.58879
C          9.49811        5.19934       -7.03073
C          9.72500        5.20085       -5.65221
B          8.06647        5.41800       -9.18637
S          7.04189        6.91158       -9.93497
O          7.00179        6.86690      -11.40310
O          5.78658        7.21504       -9.22685
C          8.10066        8.48612       -9.60740
F          9.32245        8.40791      -10.18948
F          7.46558        9.56505      -10.12683
F          8.28881        8.71603       -8.28590
C          7.27927        4.11236       -9.73002
C          6.28514        3.44451       -8.98953
C          5.61429        2.32667       -9.49261
C          5.91063        1.80591      -10.76775
C          6.91910        2.46084      -11.50686
C          7.57722        3.58273      -11.00227
Si         4.95816        0.36889      -11.50140
C          3.61815        1.01260      -12.70415
C          4.14776        1.96504      -13.78525
C          3.07718        2.36899      -14.78293
C          3.46003        3.47189      -15.83578
C          4.69728        3.26510      -16.79078
C          4.74791        2.07248      -17.83057
C          3.60072        1.96319      -18.90353
C          3.95715        1.04551      -20.13516
F          4.42172       -0.15257      -19.73265
F          2.83568        0.84795      -20.85878
F          4.87250        1.62370      -20.93174
F          2.49248        1.44248      -18.32596
F          3.30761        3.19171      -19.40263
F          5.92274        2.23730      -18.50748
F          4.81704        0.89963      -17.15148
F          4.83551        4.41636      -17.50145
F          5.81049        3.11238      -16.02021
F          2.37687        3.70930      -16.63464
F          3.73430        4.61344      -15.14752
F          2.62262        1.27365      -15.49030
F          1.97935        2.89035      -14.13717
C          6.11274       -0.78438      -12.46372
C          4.05284       -0.62541      -10.17204
C          9.35079        7.40293       -2.34074
C         10.49394        4.54921       -2.41372
H          1.04281       -2.35146       -0.45665
H          2.73401       -2.77912       -0.79045
H          1.70819       -2.14298       -2.08963
H          2.56711       -0.55603        0.41776
H          1.55364        0.07410       -0.87751
H          3.44320       -0.25354       -2.51204
H          4.45630       -0.87670       -1.21195
H          4.24603        1.33153       -0.00202
H          3.25031        1.95031       -1.31866
H          5.16790        1.60014       -2.92392
H          6.16165        1.00119       -1.59780
H          5.92735        3.22928       -0.42801
H          4.94585        3.82153       -1.76818
H          6.87607        3.45616       -3.34365
H          7.85573        2.87175       -2.00353
H          7.65626        5.12528       -0.86866
H          6.63156        5.69804       -2.17806
H          6.62879        6.17650       -4.63516
H          6.25026        6.17155       -7.05732
H         10.31776        4.93452       -7.70465
H         10.71815        4.92911       -5.28176
H          9.12803        5.55540       -9.77163
H          6.03128        3.80765       -7.99123
H          4.84658        1.85157       -8.87465
H          7.20224        2.08921      -12.49702
H          8.34307        4.07338      -11.60706
H          2.84747        1.52431      -12.10773
H          3.13048        0.14121      -13.17155
H          4.96399        1.49929      -14.35581
H          4.55652        2.87990      -13.33133
H          6.66690       -0.25225      -13.25016
H          5.55105       -1.60032      -12.94237
H          6.85644       -1.23175      -11.78900
H          3.33421       -0.00205       -9.62177
H          4.75927       -1.04560       -9.44214
H          3.49539       -1.45963      -10.62267
H          8.51007        8.06172       -2.60150
H         10.24489        7.79627       -2.84535
H          9.51361        7.46997       -1.25435
H         10.35161        3.50202       -2.71525
H         10.65602        4.57162       -1.32561
H         11.41528        4.91027       -2.89286
