28

C          1.37277        1.05354       -0.45233
In         3.05127       -0.16303        0.35398
C          4.50081       -0.95168       -1.37005
C          4.19477       -0.92995       -2.89412
C          4.22997        0.47145       -3.59541
C          3.68387        0.51108       -5.07245
F          4.32502       -0.36073       -5.87887
F          2.36337        0.25553       -5.13302
F          3.88304        1.75617       -5.57672
F          3.49544        1.36924       -2.89775
F          5.51924        0.91833       -3.66903
F          5.06862       -1.72767       -3.61401
F          2.94043       -1.45976       -3.08629
F          5.78872       -0.37329       -1.25579
F          4.71892       -2.31772       -1.12030
C          4.47735        1.05385        1.61128
C          4.68444        2.51064        1.20486
N          5.03904        2.62937       -0.22389
H          0.83144        0.52356       -1.24892
H          1.76366        1.99479       -0.86219
H          0.65572        1.29278        0.34689
H          2.57449       -1.68218        1.15060
H          5.44901        0.53031        1.61792
H          4.09983        1.01524        2.64604
H          5.45114        2.99426        1.85551
H          3.74958        3.07867        1.36309
H          5.68785        1.88313       -0.48087
H          5.51120        3.51519       -0.41174
