32

N          0.93250        4.02914       -0.33366
C          2.19205        3.45823       -0.62892
N          2.47349        2.76683       -1.68813
N          3.12810        3.73307        0.33713
C          4.55048        3.46557        0.14183
C          5.24675        3.24926        1.49174
C          6.75418        3.52176        1.46109
C          7.15000        5.01285        1.30812
C          6.58941        6.00706        2.29511
S          7.33521        6.39679        3.71358
O          8.74742        5.99434        3.66856
O          6.95040        7.69815        4.25915
C          6.71055        5.25090        5.14836
C          7.36802        5.38946        6.55002
F          8.68069        5.08263        6.51966
F          7.22990        6.63255        7.05086
F          6.77997        4.53137        7.44651
F          5.36419        5.45178        5.32306
F          6.87915        3.93565        4.77868
I          4.74208        6.96535        1.86015
H          0.17500        3.59519       -0.85235
H          0.71940        4.06881        0.66169
H          1.62380        2.59004       -2.23143
H          2.95769        4.57109        0.89426
H          5.01732        4.30779       -0.39912
H          4.63264        2.58368       -0.50641
H          5.04963        2.22172        1.83737
H          4.79810        3.91658        2.24459
H          7.22619        2.94925        0.64019
H          7.19559        3.14797        2.39611
H          6.89670        5.36250        0.29276
H          8.24787        5.07272        1.37819
