38

C          5.73295        2.61821        1.57756
C          5.62718        1.10450        1.37529
C          4.25763        0.53850        1.76856
C          4.11343       -0.96266        1.53184
Ta         5.19856       -2.66243        2.28923
S          4.27111       -4.23538        4.12199
O          4.81160       -4.29683        5.50468
O          2.83763       -3.82375        3.99783
C          4.26440       -5.99964        3.60679
C          6.99729       -2.82844        3.60805
C          7.29691       -2.03570        4.73970
C          8.47877       -2.19061        5.46148
C          9.42352       -3.17292        5.10968
C          9.16458       -3.98804        4.01609
C          7.97584       -3.80654        3.27982
C          7.63570       -4.56994        2.08995
O          6.58908       -4.35100        1.46380
O          8.46359       -5.53667        1.60433
H          6.72377        3.00043        1.28879
H          5.56640        2.89017        2.63158
H          4.98059        3.15593        0.97830
H          6.40703        0.58450        1.95308
H          5.83013        0.85612        0.31923
H          3.48046        1.10969        1.22035
H          4.08356        0.74292        2.83877
H          4.20712       -1.19761        0.44142
H          3.09517       -1.30438        1.82340
H          4.71930       -1.86895        3.79448
H          6.60675       -1.88178        1.46883
H          4.19807       -3.92636        1.48958
H          5.29446       -6.37784        3.60810
H          3.82059       -6.07001        2.60823
H          3.66340       -6.52650        4.35974
H          6.56732       -1.29150        5.06552
H          8.67117       -1.55314        6.32883
H         10.33677       -3.30058        5.69294
H          9.89671       -4.76302        3.75164
H          9.23422       -5.58884        2.19715
