94

F          6.55974        3.46868       -0.28562
C          5.48704        3.59882       -1.11598
C          4.37053        4.41696       -0.50385
C          3.80147        3.83556        0.79402
Si         2.40602        4.86656        1.59909
C          1.93580        4.08289        3.22794
C          2.56630        4.47641        4.42616
C          2.25712        3.86281        5.64054
C          1.25912        2.86575        5.76294
C          0.64191        2.47666        4.55415
C          0.97783        3.05129        3.32524
Ta         0.74560        2.31131        7.85405
C          0.41095        3.88962        9.33937
C          0.87619        5.21418        9.14583
C          0.73580        6.19564       10.12702
C          0.10631        5.90648       11.34794
C         -0.36572        4.61458       11.55982
C         -0.20519        3.62058       10.57831
C         -1.02979        4.25200       12.86017
F         -1.21800        5.32307       13.68252
F         -2.25849        3.68420       12.67311
F         -0.29909        3.34127       13.57348
C          1.25355        7.59220        9.91714
F          1.71854        7.81153        8.66148
F          0.29211        8.53993       10.15215
F          2.28369        7.89241       10.77271
C          0.35505        0.45199        8.95495
C          1.37730        0.20223        9.90348
C          1.28214       -0.82437       10.84904
C          0.14621       -1.65720       10.90353
C         -0.87770       -1.41542        9.96416
C         -0.76893       -0.39513        9.01362
Si         0.05013       -3.05950       12.15487
C          0.49111       -2.42970       13.90135
C         -0.47099       -1.38218       14.47798
C         -0.09117       -0.96544       15.89015
C         -0.92495        0.19600       16.54314
C         -2.48471        0.05193       16.72318
C         -3.11394       -1.08001       17.63505
C         -2.69415       -1.13951       19.15099
C         -3.63845       -2.02332       20.05254
F         -3.78978       -3.25651       19.53384
F         -3.07356       -2.13881       21.27201
F         -4.84941       -1.46075       20.20266
F         -1.44924       -1.66230       19.25316
F         -2.69950        0.11003       19.68272
F         -4.46158       -0.86416       17.59335
F         -2.86570       -2.28803       17.06856
F         -2.92959        1.24264       17.20400
F         -3.03920       -0.13644       15.49122
F         -0.40605        0.46831       17.77670
F         -0.76068        1.29884       15.76342
F         -0.14259       -2.04064       16.75299
F          1.20606       -0.50712       15.92357
C         -1.68409       -3.81502       12.18559
C          1.31394       -4.40613       11.74472
C          3.04967        6.62977        1.85977
C          0.93121        4.92810        0.41170
F          5.95669        4.17377       -2.26829
F          5.09192        2.33685       -1.44880
H          3.59635        4.50545       -1.28094
H          4.78358        5.42429       -0.34438
H          4.60227        3.73080        1.54300
H          3.41287        2.82029        0.61762
H          3.32848        5.26228        4.41403
H          2.82816        4.16468        6.52660
H         -0.14555        1.71931        4.58681
H          0.46004        2.70266        2.42538
H          2.55566        2.20184        7.73345
H         -0.51644        1.53176        6.87667
H         -0.44010        3.44146        7.17782
H          1.34398        5.49049        8.19847
H         -0.01315        6.67542       12.10979
H         -0.57735        2.61604       10.79710
H          2.28302        0.82200        9.90466
H          2.10812       -0.97373       11.55305
H         -1.77819       -2.03708        9.97284
H         -1.57903       -0.24327        8.29542
H          1.51222       -2.01926       13.86869
H          0.53266       -3.30730       14.56707
H         -1.49888       -1.76940       14.51163
H         -0.48745       -0.47590       13.85453
H         -2.45623       -3.06933       12.42258
H         -1.74383       -4.61510       12.93825
H         -1.94039       -4.25656       11.21201
H          2.33303       -3.99442       11.72600
H          1.11419       -4.83787       10.75394
H          1.28927       -5.22010       12.48434
H          3.96090        6.64248        2.47493
H          2.29539        7.24068        2.37544
H          3.28407        7.12250        0.90465
H          0.52182        3.92559        0.22215
H          1.20565        5.36884       -0.55822
H          0.12456        5.53918        0.84120
