20

Cl         4.74433       -0.79858        2.36640
Al         5.90634       -0.98271        0.55936
S          4.32959       -1.01578       -1.32912
O          3.16092       -0.12481       -1.23431
O          5.12143       -0.98523       -2.57204
C          3.51747       -2.81200       -1.52130
C          2.58440       -3.39948       -0.41787
C          1.28484       -2.59523       -0.04441
C          0.19360       -3.44995        0.70691
F         -0.41421       -4.32633       -0.11770
F          0.72110       -4.12934        1.74434
F         -0.75572       -2.61612        1.18947
F          1.60913       -1.57184        0.77475
F          0.68407       -2.10933       -1.16285
F          2.17959       -4.65291       -0.83022
F          3.31762       -3.55908        0.71641
F          2.83832       -2.79260       -2.70084
F          4.54449       -3.70774       -1.64288
Cl         6.99886        0.82088        0.12300
H          6.72043       -2.34208        0.43217
