28

S          1.18970       -1.42688        0.29401
C          2.76578       -0.46906        0.25632
C          3.33410       -0.49701       -1.16095
C          4.65842        0.27546       -1.29051
B          5.28922        0.07276       -2.77176
C          4.38360        0.51399       -4.03916
C          4.23928       -0.45074       -5.06027
C          3.41318       -0.27681       -6.17095
C          2.66053        0.89416       -6.29742
C          2.75898        1.86635       -5.30639
C          3.61570        1.69985       -4.20270
C          3.60367        2.87230       -3.25347
O          2.58645        3.51241       -3.02655
O          4.76746        3.26517       -2.70011
Br         7.16489        1.19522       -2.90433
H          0.92477       -1.28507        1.61489
H          3.47006       -0.92514        0.96638
H          2.56064        0.56295        0.57245
H          2.58742       -0.07372       -1.85321
H          3.48074       -1.54615       -1.47096
H          5.37596       -0.10653       -0.54326
H          4.48100        1.33186       -1.02877
H          5.68783       -1.06807       -2.93399
H          4.80520       -1.37885       -4.95389
H          3.34765       -1.05881       -6.93166
H          1.99915        1.04591       -7.15303
H          2.16710        2.78124       -5.36038
H          5.52230        2.64452       -2.91192
