62

S          1.74476        0.80182       -0.52189
In         3.12297       -0.70363        0.99299
C          4.40148       -2.01307       -0.29494
C          5.04108       -1.52623       -1.45155
C          5.89350       -2.32572       -2.22304
C          6.14436       -3.66888       -1.87787
C          5.49420       -4.16954       -0.73083
C          4.65020       -3.35923        0.03549
Si         7.31076       -4.77307       -2.84008
C          8.79031       -5.20396       -1.70857
C          9.75480       -6.25470       -2.26825
C         10.94628       -6.53813       -1.37822
F         10.58604       -6.96219       -0.13445
F         11.74518       -7.51893       -1.90600
F         11.74192       -5.44445       -1.20581
C          6.44745       -6.38368       -3.34615
C          7.97908       -3.92128       -4.39317
C          4.44999        0.90187        1.80212
C          3.91672        2.07741        2.36709
C          4.72972        3.13664        2.78126
C          6.13265        3.07996        2.64567
C          6.67454        1.91021        2.07780
C          5.85066        0.85360        1.67027
Si         7.20060        4.49346        3.25006
C          7.31187        4.38533        5.15589
C          8.07268        5.53078        5.83138
C          8.14291        5.42231        7.33965
F          8.78748        4.29551        7.75573
F          8.81941        6.48053        7.88843
F          6.91129        5.40839        7.92293
C          8.95171        4.40707        2.53431
C          6.44282        6.16868        2.79001
H          0.82879       -0.13845       -0.84861
H          2.13332       -1.63867        2.11512
H          4.86610       -0.49252       -1.76690
H          6.37055       -1.89293       -3.10861
H          5.64877       -5.21098       -0.42483
H          4.17109       -3.79521        0.91877
H          8.38669       -5.54293       -0.74189
H          9.32888       -4.26576       -1.50159
H         10.16951       -5.95016       -3.24143
H          9.24923       -7.21987       -2.42125
H          6.03776       -6.90683       -2.47022
H          7.12381       -7.07493       -3.87063
H          5.60601       -6.16276       -4.01839
H          8.53631       -3.00781       -4.14082
H          7.16334       -3.63825       -5.07319
H          8.65764       -4.58547       -4.94906
H          2.83223        2.18380        2.46819
H          4.25766        4.02900        3.20727
H          7.75714        1.82189        1.93853
H          6.32032       -0.02669        1.21944
H          7.77829        3.41964        5.40688
H          6.28191        4.33705        5.54302
H          7.60621        6.50423        5.61705
H          9.11448        5.58794        5.48072
H          9.45953        3.47171        2.80882
H          9.57140        5.24260        2.89276
H          8.92448        4.46179        1.43673
H          5.43044        6.28159        3.20330
H          6.36343        6.26157        1.69754
H          7.05186        7.00945        3.15436
