31

N          1.25069        0.50347       -0.23598
C          2.64054        0.10444       -0.57391
In         3.07279       -2.11523       -0.32028
C          1.63787       -3.02088       -1.84755
C          0.63629       -2.16487       -2.35712
C         -0.26545       -2.56059       -3.35218
C         -0.19848       -3.84933       -3.89230
C          0.79403       -4.71747       -3.43992
C          1.70012       -4.30692       -2.43593
C          2.74496       -5.28584       -1.99027
O          3.14585       -5.44405       -0.85993
O          3.26848       -6.07965       -3.00169
C          5.16025       -2.34001       -1.15463
C          5.18846       -2.16074       -2.66195
N          6.57022       -2.21459       -3.22819
H          1.16340        1.51550       -0.10019
H          0.96988        0.07500        0.64630
H          3.40414        0.66448        0.00426
H          2.81821        0.34609       -1.63659
H          2.78378       -2.61934        1.35544
H          0.55660       -1.15093       -1.94916
H         -1.02970       -1.86229       -3.70639
H         -0.91263       -4.17806       -4.65074
H          0.83150       -5.73786       -3.83673
H          2.92105       -5.73501       -3.84370
H          5.60013       -3.30828       -0.87379
H          5.76414       -1.54766       -0.67476
H          4.67516       -1.21641       -2.93469
H          4.62019       -2.97057       -3.15025
H          7.13858       -1.51907       -2.73744
H          6.55297       -1.91793       -4.20972
