14

Cl         1.53789       -0.74550       -0.28658
In         3.53564        0.43606        0.35589
C          4.71993        1.05121       -1.49726
C          4.42579        0.34512       -2.83726
F          4.61376       -0.98765       -2.72336
F          3.14707        0.56526       -3.22253
F          5.23144        0.78430       -3.84871
F          4.51318        2.41199       -1.73267
F          6.08014        0.90617       -1.27439
S          5.12192       -1.37762        1.46899
O          5.34813       -2.64297        0.77876
O          6.26520       -0.74378        2.12464
F          4.12425       -1.81475        2.77255
H          3.28455        1.65651        1.56264
