17

S          1.11402       -0.60129       -0.24824
N          2.59178        0.15126        0.25336
C          3.30417       -0.59399        1.11815
C          2.97837       -1.90084        1.62923
C          3.80179       -2.55981        2.54110
C          4.99865       -2.00731        3.02197
C          5.34254       -0.72863        2.51826
C          4.54672       -0.04969        1.61129
C          5.85953       -2.72166        4.03179
H          0.76605        0.39705       -1.09510
H          2.06239       -2.38916        1.28825
H          3.49919       -3.55275        2.89710
H          6.27278       -0.25638        2.85717
H          4.84250        0.93624        1.24249
H          5.46812       -3.73171        4.23043
H          5.90501       -2.19761        5.00608
H          6.90579       -2.83928        3.69371
