72

C         16.30178       -3.91359        8.88671
C         15.71068       -2.50783        9.01453
C         14.59197       -2.22220        8.00771
C         13.99621       -0.81720        8.13651
C         12.89697       -0.50969        7.11515
C         12.29240        0.88941        7.26872
C         11.21049        1.21838        6.23222
C         10.59772        2.61681        6.40144
Si         9.26854        3.11780        5.12913
C          8.70682        4.87599        5.46009
C          9.64718        5.90988        5.65679
C          9.24004        7.22755        5.88245
C          7.88179        7.60599        5.92075
C          6.95416        6.56636        5.71838
C          7.34662        5.24003        5.49770
Ga         7.33351        9.52517        6.36508
C          7.88780       10.67452        4.74758
C          8.20847       10.06075        3.51974
C          8.67688       10.77213        2.40925
C          8.86453       12.15524        2.49162
C          8.58497       12.80365        3.69520
C          8.09529       12.07416        4.79826
C          7.77806       12.85534        6.04150
O          6.72616       12.86196        6.63753
O          8.80566       13.67431        6.47860
C          5.35497        9.66468        6.79713
C          4.46296       10.15993        5.65683
C          3.00675       10.39215        6.06338
N          2.20860       10.91352        4.93130
C         10.01822        2.98591        3.38946
C          7.80953        1.91224        5.24550
H         17.10650       -4.08352        9.61620
H         16.72180       -4.07809        7.88278
H         15.53383       -4.68447        9.05178
H         16.51051       -1.75889        8.88575
H         15.32306       -2.36214       10.03711
H         13.79036       -2.97221        8.13166
H         14.98075       -2.36294        6.98332
H         14.80340       -0.07020        8.03491
H         13.59220       -0.68652        9.15604
H         12.09553       -1.26494        7.20248
H         13.30674       -0.62098        6.09533
H         13.09540        1.64462        7.20145
H         11.86546        0.99399        8.28177
H         10.41757        0.45192        6.29150
H         11.64703        1.11958        5.22276
H         11.39704        3.37786        6.36813
H         10.14819        2.71091        7.40544
H         10.71975        5.68271        5.64152
H         10.00961        7.98968        6.04796
H          5.88262        6.79244        5.74504
H          6.57486        4.47581        5.35679
H          8.27089       10.00310        7.58245
H          8.09331        8.97602        3.43444
H          8.89870       10.24679        1.47623
H          9.22134       12.72448        1.63071
H          8.71308       13.88811        3.77034
H          9.58741       13.45828        5.93917
H          5.28235       10.36288        7.64740
H          4.99539        8.68618        7.16452
H          4.48172        9.45936        4.80403
H          4.86663       11.11537        5.27529
H          2.99907       11.06299        6.94633
H          2.55490        9.43785        6.38516
H          2.67400       11.74927        4.56831
H          1.29236       11.22469        5.26034
H         10.88684        3.65324        3.28993
H          9.28064        3.29351        2.63439
H         10.34416        1.96250        3.15067
H          7.34371        1.94617        6.24087
H          8.13482        0.87852        5.05708
H          7.03355        2.15542        4.50561
