43

C          9.86325        6.56199        3.61418
S          9.83440        5.02729        2.63988
C          8.09713        4.45545        2.95275
C          7.79967        3.14623        2.25013
In         5.74409        2.30273        2.63229
C          4.37365        3.73382        3.68119
C          4.44245        5.13817        3.59258
C          3.57816        5.97735        4.30803
C          2.57886        5.44765        5.14719
C          2.48604        4.04251        5.22440
C          3.36341        3.21708        4.51573
Si         1.42865        6.48729        6.19678
C          1.63065        8.34839        5.81585
C          0.62619        9.22058        6.57973
C          0.81221       10.71054        6.38741
F          0.70295       11.09268        5.08422
F         -0.12912       11.42417        7.08185
F          2.02744       11.14805        6.82515
C         -0.37640        6.00047        5.88786
C          1.82123        6.22177        8.03300
Cl         4.81245        2.12061        0.32163
H         10.86199        7.00556        3.50502
H          9.68129        6.36369        4.68046
H          9.11757        7.28298        3.24895
H          7.43588        5.26386        2.60564
H          7.98604        4.37820        4.04583
H          8.52822        2.37501        2.54362
H          7.86155        3.26523        1.15858
H          5.63578        0.69674        3.36385
H          5.19131        5.60716        2.94712
H          3.69108        7.06220        4.20771
H          1.71682        3.57881        5.85302
H          3.25421        2.13221        4.61663
H          1.51947        8.51056        4.73267
H          2.65854        8.64768        6.07484
H          0.68350        9.04828        7.66548
H         -0.40727        8.99943        6.27393
H         -0.67500        6.23748        4.85654
H         -1.06942        6.50923        6.57427
H         -0.50873        4.91782        6.02494
H          2.85388        6.52912        8.25280
H          1.73678        5.15562        8.28769
H          1.14630        6.77953        8.69938
