31

C          3.06886       -1.07035       -1.85423
C          2.87719        0.14588       -0.94119
C          3.92228        1.25920       -1.14340
C          3.76954        2.45307       -0.19278
Ta         5.40389        4.07833       -0.25641
C          3.95139        5.11120        1.06258
C          3.16723        4.46962        2.21290
C          4.03664        3.99637        3.38758
C          4.39067        6.54214        1.40307
F          6.65274        2.66448       -0.10404
H          2.29525       -1.83798       -1.69128
H          4.04831       -1.54308       -1.68082
H          3.03110       -0.77922       -2.91568
H          2.90227       -0.17777        0.11443
H          1.87034        0.57184       -1.09858
H          3.86823        1.60595       -2.19136
H          4.92820        0.81402       -1.02911
H          3.80151        2.06005        0.84774
H          2.75692        2.87791       -0.32006
H          6.52706        5.11479        0.76204
H          4.66775        4.20439       -1.88758
H          6.14596        5.35765       -1.28789
H          3.25749        5.17662        0.18240
H          2.59230        3.61174        1.83588
H          2.41972        5.19126        2.60594
H          4.73421        3.20868        3.06628
H          3.41577        3.58731        4.20151
H          4.63884        4.81570        3.80710
H          5.05590        6.54830        2.27949
H          3.52049        7.19475        1.62696
H          4.96027        7.00414        0.58375
