29

C          0.99980       -0.40086        1.12118
C          2.33087       -0.22307        0.37672
C          2.98577        1.14081        0.68213
B          2.32337        2.51475        0.08332
C          2.35317        2.60618       -1.57439
C          1.40219        1.70812       -2.31647
O          1.63237        1.05667       -3.32170
O          0.14097        1.66390       -1.76968
C          3.08147        3.82913        0.75043
C          2.43675        5.16162        0.48209
O          2.99393        6.20279        0.17805
O          1.06819        5.15074        0.60954
C          3.27669       -1.38934        0.70665
H          0.29362        0.40439        0.88256
H          1.16340       -0.38422        2.21265
H          0.51823       -1.35825        0.86740
H          2.11725       -0.27891       -0.70515
H          4.03085        1.10016        0.31275
H          3.08140        1.22552        1.78475
H          1.09834        2.58704        0.45636
H          3.36112        2.43001       -1.98053
H          2.07767        3.63715       -1.86823
H          0.23466        2.10774       -0.89176
H          4.13770        3.90602        0.44885
H          3.07761        3.69272        1.84840
H          0.83392        4.19210        0.68500
H          3.54053       -1.38580        1.77817
H          4.21428       -1.30856        0.13629
H          2.82268       -2.36765        0.47733
