51

C          3.42065       -1.70297        2.97293
C          3.66082       -0.28393        2.45022
C          5.06287       -0.07563        1.87430
C          5.30284        1.32470        1.29813
Nb         5.55105        3.23377        2.49311
C          3.92155        3.94964        3.82762
C          2.98071        3.13285        4.50938
C          2.01297        3.65365        5.36395
C          1.93105        5.03802        5.61107
C          2.83175        5.88049        4.97307
C          3.80112        5.34561        4.09906
C          4.71937        6.16954        3.31683
O          5.49355        5.67907        2.49369
O          4.71227        7.53340        3.44700
C          7.65652        3.92896        2.56198
C          8.64151        2.82905        2.15856
C         10.09214        3.06315        2.61650
C         11.03946        1.93991        2.19607
N         12.39370        2.18345        2.68499
C         13.42428        1.29176        2.45983
N         13.41880        0.23212        1.72198
N         14.60200        1.63736        3.15220
H          2.41454       -1.82050        3.40553
H          4.15226       -1.96124        3.75490
H          3.52681       -2.44797        2.16761
H          3.51547        0.43973        3.26745
H          2.90812       -0.03507        1.68159
H          5.22541       -0.85471        1.09680
H          5.79711       -0.27264        2.67450
H          4.65601        1.47671        0.41896
H          6.34069        1.37380        0.89789
H          5.77561        1.81157        3.65066
H          5.59407        3.54493        0.74258
H          4.09381        3.79079        1.61644
H          3.01868        2.05088        4.36792
H          1.31377        2.97905        5.86652
H          1.17936        5.43947        6.29258
H          2.76154        6.95966        5.16714
H          4.04402        7.76197        4.11665
H          7.72955        4.11792        3.66017
H          7.87493        4.88061        2.05806
H          8.63145        2.72234        1.06005
H          8.30964        1.85473        2.56123
H         10.10620        3.15591        3.71807
H         10.45937        4.02237        2.21454
H         11.07207        1.87174        1.09604
H         10.65186        0.97177        2.56847
H         12.44123        2.68148        3.56983
H         12.47430        0.02598        1.38641
H         14.83305        2.62669        3.09073
H         15.37146        1.05529        2.83042
