7

O          1.09745        0.06854       -0.15773
C          2.33485        0.03298        0.02185
O          3.04246       -0.16513        1.03196
C          3.14604        0.29708       -1.32569
F          2.85524       -0.63010       -2.30096
F          2.85503        1.52359       -1.87912
F          4.50943        0.27213       -1.19721
