45

C          8.39973       -5.18453       -1.93809
C          8.41848       -4.49700       -0.56873
C          7.05456       -3.93296       -0.14868
C          7.02665       -3.26002        1.22511
B          5.59790       -2.56899        1.68455
C          4.44158       -3.69245        1.87445
C          4.12038       -4.20990        3.14950
C          3.19013       -5.23074        3.33347
C          2.52548       -5.78458        2.22381
C          2.80066       -5.27650        0.94260
C          3.73370       -4.25192        0.78840
C          1.56760       -6.91495        2.41225
C          0.15852       -6.59663        3.04424
C         -0.81703       -5.58894        2.32625
C         -1.44931       -5.91535        0.90944
C         -2.26937       -7.24937        0.73554
C         -3.22971       -7.25252       -0.51605
F         -2.58985       -6.85154       -1.63022
F         -3.67503       -8.51299       -0.71143
F         -4.29941       -6.46040       -0.31862
F         -1.41575       -8.28864        0.58212
F         -3.05341       -7.47283        1.82337
F         -2.31196       -4.88124        0.65960
F         -0.48082       -5.88609       -0.03445
F         -1.87122       -5.40437        3.17910
F         -0.18888       -4.39797        2.17617
F         -0.53956       -7.76584        3.20844
F          0.36304       -6.06902        4.28519
F          1.30262       -7.57677        1.22969
F          2.08543       -7.86839        3.28217
F          5.81078       -1.87287        2.95076
H          9.38936       -5.57424       -2.22403
H          8.07537       -4.48556       -2.72504
H          7.69366       -6.02964       -1.94381
H          9.16144       -3.68019       -0.57410
H          8.76352       -5.21226        0.19820
H          6.31766       -4.75652       -0.17566
H          6.71857       -3.21019       -0.91608
H          7.78557       -2.45446        1.24704
H          7.34239       -3.99438        1.99319
H          5.23128       -1.75978        0.80818
H          4.63250       -3.78776        4.01780
H          2.98770       -5.61685        4.33441
H          2.29085       -5.69253        0.07245
H          3.92286       -3.86430       -0.21673
