31

C          1.20319        0.22708        0.01574
C          2.73253        0.14273        0.05924
C          3.32634        0.46801        1.43518
C          4.85734        0.33057        1.51958
C          5.44166        0.65140        2.89807
In         7.67332        0.46787        3.12479
C          8.54489        2.31186        4.06720
C          8.25784        3.60037        3.29046
C          8.94218        4.84289        3.87065
N          8.61721        6.05961        3.09138
Cl         8.55119        0.68743        0.75518
H          0.80436       -0.00863       -0.98295
H          0.85211        1.23540        0.28523
H          0.74847       -0.47725        0.73009
H          3.16074        0.82816       -0.69186
H          3.05221       -0.86960       -0.24218
H          2.86434       -0.19192        2.19298
H          3.03923        1.49708        1.72021
H          5.32166        0.98042        0.75808
H          5.13228       -0.69717        1.22161
H          4.98149        0.00046        3.66274
H          5.18297        1.68823        3.17758
H          8.28426       -1.08857        3.72671
H          9.63362        2.15356        4.14746
H          8.15968        2.39476        5.09930
H          7.17251        3.79608        3.24378
H          8.58670        3.47823        2.24195
H         10.03200        4.64431        3.93018
H          8.59350        5.00554        4.90518
H          8.84576        5.88993        2.10883
H          9.21097        6.83726        3.38718
