15

Cl         1.03305       -0.06903       -0.12419
N          2.83927       -0.05423       -0.13093
C          3.24494       -0.75297        1.04854
C          4.79001       -0.74696        1.10162
C          5.33440        0.68371        1.17893
C          5.30927       -1.60214        2.26365
H          2.91648       -1.83472        1.10603
H          2.88375       -0.30585        2.02502
H          5.13944       -1.19333        0.15255
H          5.00462        1.16387        2.11670
H          4.93033        1.27197        0.34485
H          6.43818        0.70575        1.15599
H          4.97531       -1.18778        3.22981
H          6.41169       -1.63908        2.28030
H          4.93177       -2.63430        2.19667
