31

F          3.89761        0.78543       -1.49310
B          2.89380        0.61417       -0.45021
C          3.59224        0.72452        1.01005
C          4.92912        1.14447        1.16639
C          5.52789        1.24849        2.42686
C          4.81649        0.92661        3.58962
C          3.49318        0.50009        3.45484
C          2.89805        0.40388        2.18927
C          2.69130        0.12089        4.66568
F          3.37129        0.28678        5.83914
F          1.53986        0.85368        4.78521
F          2.29167       -1.18987        4.63935
C          6.95717        1.68314        2.57726
F          7.51124        2.13865        1.42394
F          7.10355        2.68888        3.50181
F          7.77072        0.66581        3.01862
C          1.72618        1.75983       -0.63422
C          0.81355        1.52454       -1.85348
C         -0.19355        0.41207       -1.57688
S         -1.22360       -0.09396       -3.00828
H          2.40538       -0.53075       -0.53497
H          5.49964        1.38756        0.26844
H          5.28095        1.00402        4.57136
H          1.86365        0.05562        2.11511
H          2.22900        2.73815       -0.74945
H          1.09891        1.85304        0.27278
H          1.42484        1.24930       -2.72796
H          0.25637        2.43895       -2.13425
H         -0.86060        0.68394       -0.74546
H          0.33774       -0.50681       -1.28866
H         -1.72215        1.13418       -3.29032
