46

F          5.18684        5.67042       -7.46164
N          5.85026        6.66088       -6.56311
C          5.68529        6.24276       -5.30959
C          5.00293        5.06209       -4.84585
C          4.91945        4.76909       -3.49392
C          5.48386        5.58417       -2.47860
C          6.15892        6.75283       -2.94514
C          6.26365        7.07893       -4.28041
Si         5.38829        5.17383       -0.68393
C          7.13821        4.92178        0.06104
C          7.22826        4.57801        1.55400
C          8.66140        4.37764        2.06561
C          8.74276        3.99558        3.54685
C         10.17271        3.79854        4.06007
C         10.24851        3.39434        5.53555
C         11.67779        3.20190        6.05260
C         11.73928        2.79320        7.52656
C          4.55536        6.55666        0.33387
C          4.39702        3.57602       -0.39098
H          4.55185        4.40289       -5.58539
H          4.38589        3.85548       -3.20755
H          6.62105        7.43385       -2.21962
H          6.78944        7.98415       -4.59322
H          7.71836        5.83873       -0.14734
H          7.62497        4.13025       -0.53570
H          6.65100        3.65891        1.76040
H          6.74752        5.37196        2.15265
H          9.23956        5.30259        1.89175
H          9.15395        3.59687        1.45927
H          8.16655        3.06788        3.71388
H          8.24337        4.77297        4.15245
H         10.74585        4.73024        3.90744
H         10.67677        3.03096        3.44643
H          9.67935        2.45968        5.68666
H          9.74026        4.15872        6.15017
H         12.24472        4.13669        5.90479
H         12.18574        2.44026        5.43695
H         11.26636        3.55174        8.16862
H         12.77545        2.66415        7.87075
H         11.21031        1.84326        7.69709
H          5.07155        7.51573        0.17666
H          4.55013        6.34748        1.41528
H          3.51411        6.69065        0.00630
H          4.86555        2.71723       -0.89341
H          3.37431        3.67330       -0.78307
H          4.32358        3.34253        0.68176
