44

C          0.71450        0.88848        2.58054
O          2.11655        1.05530        2.58189
C          2.80063       -0.19585        2.57667
C          4.30328        0.05312        2.60923
O          4.92509       -1.20880        2.50900
C          6.36512       -1.13122        2.59377
C          6.88025       -2.56702        2.55213
C          8.40285       -2.78586        2.75947
C          8.65762       -4.29499        2.96120
C          8.12790       -5.24497        2.07216
C          8.35838       -6.61416        2.23845
C          9.13186       -7.09299        3.30202
C          9.66668       -6.14652        4.18924
C          9.44049       -4.77947        4.02396
C          9.37900       -8.56987        3.49402
C          8.96024       -2.01722        4.05905
O          8.11916       -1.83401        4.97255
O         10.18890       -1.75253        4.03060
C          9.25066       -2.43281        1.53586
O          9.04212       -1.01829        1.16412
C          9.64710       -0.60536        0.06266
F         11.00693       -0.77454        0.05883
F          9.20531       -1.23579       -1.08803
F          9.40374        0.71809       -0.10529
H          0.26352        1.88991        2.57401
H          0.36556        0.34263        3.47956
H          0.36855        0.33268        1.68627
H          2.54189       -0.77326        1.66703
H          2.50304       -0.80215        3.45450
H          4.58397        0.56836        3.54947
H          4.59035        0.71796        1.76794
H          6.66310       -0.66249        3.54578
H          6.74121       -0.52380        1.75316
H          6.55447       -3.02028        1.59975
H          6.36637       -3.10348        3.36215
H          7.51324       -4.91932        1.23045
H          7.92643       -7.32306        1.52584
H         10.27671       -6.48544        5.03166
H          9.88026       -4.06500        4.72108
H          8.93542       -9.15837        2.67888
H          8.94689       -8.93103        4.44079
H         10.45586       -8.79761        3.52660
H          8.97761       -3.04109        0.65892
H         10.30890       -2.55206        1.79888
