40

F          7.09339        3.47493        1.53816
C          6.27626        2.38966        1.41881
C          4.84248        2.76487        1.12004
C          4.66285        3.54948       -0.18392
Si         2.84044        4.00083       -0.55309
C          2.09892        4.90644        0.89510
C          2.61831        6.15367        1.31522
C          2.08803        6.84286        2.39675
C          0.98757        6.33484        3.14128
C          0.46122        5.08204        2.72430
C          1.01073        4.40297        1.64008
N          0.52097        7.14588        4.15588
S         -0.45452        6.73678        5.31002
O         -1.24602        7.88283        5.73783
O         -1.12773        5.43635        5.23640
C          0.69165        6.53544        6.82975
C          1.80363        5.44714        6.76378
F          1.29433        4.22051        6.54045
F          2.70996        5.71760        5.80447
F          2.47598        5.39696        7.95275
F          1.31904        7.72060        7.09319
F         -0.08891        6.22944        7.91489
C          2.86503        5.07441       -2.11483
C          1.89543        2.40065       -0.92197
F          6.82497        1.59901        0.44391
F          6.38658        1.68835        2.58607
H          4.47486        3.34502        1.97959
H          4.27684        1.82078        1.10589
H          5.06937        2.97700       -1.03369
H          5.24049        4.48638       -0.13142
H          3.46345        6.60232        0.78143
H          2.50097        7.80525        2.70409
H         -0.38216        4.65942        3.26694
H          0.56466        3.44312        1.36196
H          3.38162        6.02661       -1.92640
H          1.84082        5.31364       -2.43438
H          3.37633        4.57105       -2.94924
H          1.88793        1.71728       -0.06088
H          2.35054        1.86848       -1.77041
H          0.84858        2.61372       -1.18121
