26

N          5.01497       -0.27000        2.70360
C          5.12159       -0.13794        1.23724
C          4.95783        1.31436        0.80034
C          5.00893        1.49228       -0.71885
C          4.82671        2.95092       -1.16884
N          5.84823        3.82706       -0.60697
S          6.68606        4.70819       -1.56286
O          6.11271        4.99252       -2.88876
O          7.33643        5.80793       -0.85359
C          8.21211        3.64443       -2.04644
C          9.27020        4.26013       -3.00555
F          8.74692        4.56701       -4.20923
F          9.83503        5.36899       -2.48903
F         10.28872        3.36584       -3.23408
F          8.89184        3.26810       -0.91567
F          7.77606        2.48548       -2.65808
H          5.00587       -1.25554        2.97136
H          4.12008        0.11729        3.01037
H          4.38471       -0.76348        0.69062
H          6.12073       -0.49799        0.94126
H          5.73392        1.93862        1.26614
H          3.98629        1.69244        1.17374
H          4.21977        0.87676       -1.19074
H          5.97574        1.12404       -1.10007
H          3.83227        3.29280       -0.81218
H          4.78845        2.99231       -2.27231
