36

O          4.24122        1.03639       -3.35349
C          3.50321        0.19878       -2.53517
O          3.11441       -0.85868       -3.00181
C          3.26575        0.70085       -1.15883
Ga         4.90742        1.11138        0.02490
C          5.91491       -0.59087        0.74437
C          6.03231       -1.94072       -0.02095
C          6.87975       -1.90653       -1.33706
C          6.82482       -3.20332       -2.22531
F          7.24729       -4.28927       -1.53845
F          5.59600       -3.44458       -2.69793
F          7.65867       -3.03809       -3.28235
F          6.46841       -0.87851       -2.12127
F          8.19650       -1.71590       -1.02608
F          6.59291       -2.91642        0.77723
F          4.77055       -2.35944       -0.34009
F          7.22394       -0.26123        1.13058
F          5.27450       -0.96702        1.93196
C          6.11944        2.39019       -0.97653
C          5.57549        3.59996       -1.45275
C          6.35013        4.56523       -2.11008
C          7.72090        4.36728       -2.31468
C          8.28244        3.17022       -1.84181
C          7.50110        2.20902       -1.19503
C          8.57002        5.40566       -3.00788
H          4.65466        1.72858       -2.79775
H          2.58928        0.01971       -0.63110
H          2.79798        1.69760       -1.20628
H          4.36652        1.77138        1.36715
H          4.51166        3.81395       -1.29789
H          5.88203        5.48803       -2.46758
H          9.35221        2.98719       -1.98691
H          7.98841        1.29651       -0.84427
H          7.95200        6.21771       -3.41531
H          9.14469        4.96826       -3.83851
H          9.29925        5.85684       -2.31577
