18

O          3.02993        1.72749        3.26539
C          2.84865        0.76219        2.51537
O          2.42635       -0.40451        2.68153
C          3.24993        1.00740        0.94400
S          2.79741        2.76773        0.48967
O          1.40381        2.97623        0.83898
O          3.81410        3.75158        0.80795
C          2.74667        2.73328       -1.46628
C          3.03595        4.12702       -2.10551
F          2.24041        5.07546       -1.57524
F          4.31893        4.49053       -1.95465
F          2.78008        4.07665       -3.44521
F          3.66545        1.85795       -1.97389
F          1.51464        2.34353       -1.88081
Br         5.30698        0.88684        0.82325
N          2.57864        0.10496        0.13994
H          2.32307       -0.68651        0.75238
H          2.99861       -0.13417       -0.75308
