41

S          1.59018        0.31385        0.37907
C          3.18619        0.81823       -0.42469
C          3.66795       -0.29604       -1.35722
C          4.94935        0.05697       -2.09605
Sb         5.80081       -1.67249       -3.41695
C          3.98591       -1.49013       -4.79650
C          4.25303       -0.56961       -5.98869
C          5.20155       -1.14427       -7.04865
C          3.46362       -2.87274       -5.15836
C          7.63169       -1.80586       -2.05488
C          7.32245       -2.62496       -0.80837
C          8.39589       -2.57001        0.29195
C          8.82165       -2.29854       -2.86283
H          1.41429        1.42324        1.13616
H          3.92679        1.00895        0.36471
H          3.01482        1.74914       -0.98290
H          2.86160       -0.51978       -2.07756
H          3.80505       -1.22080       -0.77046
H          5.75366        0.32922       -1.39243
H          4.80222        0.90362       -2.78704
H          4.86068       -2.85435       -2.38681
H          6.46486       -3.02783       -4.43823
H          6.71801       -0.40890       -4.37751
H          3.25676       -0.99479       -4.13474
H          4.68379        0.37604       -5.61448
H          3.29462       -0.29492       -6.47899
H          6.16802       -1.41175       -6.60015
H          5.38824       -0.41154       -7.84907
H          4.78530       -2.04876       -7.51657
H          4.21180       -3.46238       -5.71212
H          2.54750       -2.83114       -5.78064
H          3.22070       -3.44206       -4.24768
H          7.77346       -0.74435       -1.78490
H          7.15473       -3.67763       -1.10010
H          6.36175       -2.28959       -0.37975
H          9.36628       -2.94604       -0.06633
H          8.11059       -3.17298        1.17010
H          8.55159       -1.53474        0.63535
H          8.67349       -3.34389       -3.18276
H          9.78019       -2.25030       -2.31255
H          8.94229       -1.69628       -3.77845
