48

S          3.43096        1.99349        1.00295
Nb         3.26858        0.04482       -0.43443
C          2.98043       -1.72014        0.93661
C          2.39272       -3.10818        0.52967
C          3.13686       -3.77407       -0.67290
C          2.56352       -5.14792       -1.17673
F          2.58731       -6.08535       -0.20799
F          1.30137       -5.03233       -1.62969
F          3.33285       -5.59117       -2.20036
F          3.08820       -2.92897       -1.74490
F          4.43728       -3.99728       -0.34781
F          2.43715       -3.99781        1.58168
F          1.07878       -2.98274        0.18000
F          4.09951       -2.02594        1.72406
F          2.05033       -1.21955        1.89072
C          4.47208        0.41644       -2.21222
C          4.96929       -0.45529       -3.20731
C          5.69859        0.00222       -4.30033
C          5.99248        1.37188       -4.43663
C          5.54693        2.25955       -3.44526
C          4.80197        1.78511       -2.36735
C          6.76426        1.86713       -5.61516
C          6.05270        1.81594       -7.02346
C          4.64702        2.50204       -7.22096
C          4.46041        4.06597       -7.05331
C          5.32057        5.02912       -7.95359
C          4.77658        6.50778       -8.01611
F          4.55834        7.00193       -6.78395
F          5.70375        7.27760       -8.62633
F          3.63768        6.58747       -8.72638
F          6.58293        5.09326       -7.46904
F          5.35831        4.57322       -9.23356
F          3.14722        4.30229       -7.35324
F          4.66231        4.40208       -5.75787
F          4.24825        2.19763       -8.49281
F          3.76275        1.93931       -6.36264
F          6.88911        2.34101       -7.97204
F          5.84741        0.50481       -7.34264
F          7.17893        3.17088       -5.44982
F          7.91685        1.11633       -5.81934
H          2.60376        1.39620        1.89877
H          1.66575       -0.64577       -0.60436
H          2.29512        0.34881       -1.86306
H          4.70282       -0.97152       -0.47163
H          4.78724       -1.52869       -3.12113
H          6.06224       -0.70786       -5.04492
H          5.77930        3.32206       -3.51929
H          4.45384        2.52338       -1.63661
