18

O          3.65263        3.26030       -0.18251
C          2.91308        2.33176        0.43191
O          1.69134        2.39389        0.46765
C          3.69537        1.20765        1.12157
C          4.97333        0.75568        0.39062
N          5.81593        1.91658        0.08705
S          7.32093        1.91675        0.49791
O          7.92456        0.58911        0.63462
O          8.05358        2.96269       -0.20144
C          7.39313        2.54284        2.28771
F          6.89225        3.79920        2.40606
F          6.66013        1.74299        3.11983
F          8.66038        2.56676        2.77904
H          4.65053        2.95474       -0.13083
H          3.00230        0.36708        1.26270
H          3.97084        1.58170        2.12180
H          4.68607        0.26339       -0.55743
H          5.50159       -0.00110        0.99208
