15

In         0.84441        0.11286        0.02882
C          3.12400        0.11876        0.17311
C          3.77286        0.87969       -0.97474
C          5.30252        1.00353       -0.98752
O          6.08617        0.33575       -0.31891
N          5.78493        1.93761       -1.89605
H          0.18244       -0.90930        1.34089
H          0.32134        1.82599        0.19258
H          0.42927       -0.52842       -1.59785
H          3.48868       -0.91941        0.18996
H          3.41602        0.56835        1.13564
H          3.36650        1.90696       -1.04186
H          3.50592        0.41401       -1.94273
H          5.15971        2.63483       -2.28164
H          6.77311        2.16129       -1.85179
