18

Br         1.10780       -0.02911        0.14844
B          3.17333        0.11367        0.18706
C          3.88896       -1.29455       -0.03837
C          3.43307       -2.28322       -0.93026
C          4.10703       -3.49570       -1.09626
C          5.27304       -3.78703       -0.37287
C          5.73469       -2.81619        0.52897
C          5.05686       -1.60517        0.68872
C          6.00426       -5.09665       -0.55246
I          3.86664        1.58098       -1.52292
H          3.48267        0.69580        1.19694
H          2.52109       -2.09244       -1.50095
H          3.72133       -4.23772       -1.80321
H          6.63835       -3.01390        1.11533
H          5.44252       -0.86789        1.39842
H          5.54313       -5.70380       -1.34435
H          5.99934       -5.69738        0.37199
H          7.06008       -4.93800       -0.82394
