25

C          1.11448        0.08301        0.07679
S          2.83711        0.43169       -0.39377
C          3.47253        1.10350        1.18949
C          5.00615        1.12668        1.17993
N          5.47495        2.00921        2.16816
C          6.87698        1.92798        2.29844
C          7.41609        2.82230        3.43568
C          6.77966        2.42753        4.77206
C          8.94696        2.79954        3.50365
H          0.61447       -0.35010       -0.80053
H          0.58020        0.99984        0.36811
H          1.06201       -0.64005        0.90582
H          3.09628        0.48180        2.01669
H          3.10693        2.13228        1.32508
H          5.33572        1.37625        0.11077
H          5.36076        0.05566        1.30184
H          7.44613        2.22075        1.35526
H          7.25699        0.86986        2.50132
H          7.08792        3.85096        3.19734
H          7.11831        1.42158        5.07686
H          5.68986        2.38678        4.63735
H          7.03474        3.13171        5.58237
H          9.31241        1.78695        3.74419
H          9.33555        3.48385        4.27615
H          9.39033        3.08906        2.53772
