27

C          0.84605        0.15436        0.04577
C          2.37521        0.09095       -0.01930
C          3.07356        0.94742        1.04350
C          4.60337        0.88854        0.97805
C          5.30470        1.74458        2.03553
C          6.83373        1.68714        1.94972
N          7.40001        2.53467        2.98063
S          8.94106        2.62360        3.10334
O          9.66119        1.42739        3.58202
O          9.67124        3.36603        2.05741
C          8.97915        3.79169        4.58323
F          8.40115        4.99492        4.32864
F          8.37055        3.28033        5.68532
F         10.27351        4.04423        4.93226
H          0.37689       -0.46922       -0.72990
H          0.48378        1.18500       -0.09136
H          0.47453       -0.19407        1.02200
H          2.71412        0.41054       -1.01994
H          2.70490       -0.95700        0.08747
H          2.73793        0.62782        2.04664
H          2.74399        1.99692        0.93892
H          4.93369        1.20658       -0.02755
H          4.92934       -0.16236        1.08167
H          5.00130        1.42526        3.04714
H          4.99207        2.79845        1.94066
H          7.13662        2.00148        0.92591
H          7.14996        0.62494        2.04993
