64

F          1.77111        4.65018       -5.45215
C          1.53088        4.15711       -4.19188
O          1.79382        2.86096       -4.05837
C          3.19542        2.44033       -4.30341
Ga         3.27024        0.43029       -4.03561
S          5.69913       -0.02878       -3.80745
O          6.35323        0.80770       -2.78160
O          5.91926       -1.48830       -3.74256
C          6.68914        0.40083       -5.46922
C          7.18870        1.85834       -5.62001
F          6.16636        2.72906       -5.45188
F          8.15478        2.14832       -4.73182
F          7.70169        2.07508       -6.86684
F          7.76906       -0.42112       -5.55530
F          5.86024        0.13627       -6.52526
C          2.65855       -0.61618       -5.62751
C          1.80800       -0.03092       -6.58539
C          1.32564       -0.75606       -7.67945
C          1.68205       -2.10570       -7.87621
C          2.54994       -2.68678       -6.92984
C          3.02060       -1.96102       -5.83122
Si         0.95123       -3.09106       -9.29717
C          1.02589       -2.08304      -10.91691
C          2.44546       -1.76215      -11.40557
C          2.44304       -1.01018      -12.72615
C          3.83556       -0.56388      -13.30259
C          4.94765       -1.63583      -13.61991
C          4.71667       -2.77989      -14.69065
C          4.36536       -2.36567      -16.16833
C          4.54692       -3.52428      -17.22282
F          3.91356       -4.64500      -16.82838
F          4.01341       -3.12140      -18.39425
F          5.84515       -3.80524      -17.42705
F          3.07226       -1.97050      -16.23091
F          5.16421       -1.34197      -16.56630
F          5.89340       -3.47145      -14.73240
F          3.75295       -3.61825      -14.23406
F          6.05119       -0.94321      -14.00945
F          5.25050       -2.28859      -12.46206
F          3.62899        0.14537      -14.45052
F          4.40452        0.27210      -12.38798
F          1.81443       -1.74152      -13.71198
F          1.73563        0.16528      -12.60848
C          1.87653       -4.72298       -9.54599
C         -0.87860       -3.45739       -8.98039
F          2.24320        4.96545       -3.34267
F          0.21551        4.36457       -3.93002
H          3.84282        2.97068       -3.59224
H          3.46375        2.74409       -5.32456
H          2.89256       -0.09268       -2.60285
H          1.50567        1.01523       -6.47901
H          0.65814       -0.25498       -8.38894
H          2.86706       -3.72725       -7.04774
H          3.69891       -2.44889       -5.12614
H          0.46158       -1.14923      -10.76937
H          0.48404       -2.65340      -11.68867
H          3.02762       -2.68338      -11.54648
H          2.98665       -1.14811      -10.67042
H          2.95154       -4.56736       -9.71438
H          1.47230       -5.26912      -10.41122
H          1.77312       -5.37355       -8.66607
H         -1.44303       -2.52569       -8.83228
H         -0.99808       -4.06316       -8.07107
H         -1.33526       -4.00398       -9.81892
