32

C          7.45959        2.00409       -2.30344
S          5.86929        1.13374       -2.38773
C          5.81475        0.10733       -0.85948
C          5.13464       -1.13818       -1.39745
Nb         6.06931       -1.42276       -3.43951
S          4.57291       -2.43276       -5.07759
O          4.23184       -3.79947       -5.49400
O          3.73368       -1.79149       -3.98454
C          3.92340       -1.43361       -6.63122
C          4.84069       -1.52150       -7.88044
F          4.98854       -2.79476       -8.29455
F          4.30968       -0.81144       -8.91710
F          6.06072       -1.01180       -7.61890
F          2.70776       -1.95188       -6.96780
F          3.74829       -0.12120       -6.33325
S          8.25289       -2.48800       -3.30441
O          7.97100       -1.79064       -1.97823
O          8.74431       -3.87117       -3.25877
C          9.85713       -1.58216       -3.88156
F          9.86613       -0.25825       -3.60711
F         10.93977       -2.12536       -3.27821
F         10.00678       -1.73140       -5.22041
H          7.60290        2.49303       -3.27515
H          8.27213        1.28775       -2.13841
H          7.43806        2.76510       -1.51257
H          5.31485        0.65583       -0.04174
H          6.85443       -0.09935       -0.57261
H          4.05189       -0.99838       -1.52850
H          5.31528       -2.03073       -0.78300
H          7.36554       -0.44990       -4.13856
H          5.72753       -0.36778       -4.80558
H          5.94573       -3.21063       -3.30236
