24

S          1.06587        0.57181       -0.15676
P          3.38221        0.09615        0.44061
C          3.46327       -1.64962       -0.75882
C          3.50033       -1.73673       -2.30014
F          4.60088       -1.10292       -2.79924
F          3.56937       -3.02830       -2.76191
F          2.41240       -1.18105       -2.87453
F          4.62280       -2.32733       -0.35762
F          2.41867       -2.47724       -0.37313
C          3.80383        1.33714       -0.94676
C          5.29645        1.61798       -1.08111
C          5.55842        2.67174       -2.15572
S          7.33000        3.01060       -2.53177
H          0.57967       -0.49343        0.51705
H          2.86566       -0.87179        1.39199
H          4.77064       -0.20462        0.75808
H          3.32584        1.16826        1.43150
H          3.25168        2.24662       -0.66025
H          3.37668        0.97992       -1.89296
H          5.84138        0.69572       -1.33302
H          5.70248        1.96652       -0.11488
H          5.06486        3.62290       -1.91055
H          5.15559        2.33724       -3.12360
H          7.68201        3.41044       -1.28684
