15

C          3.51950       -1.12965       -1.44972
S          2.74304       -0.06651       -0.19607
C          3.53232       -0.74628        1.32772
C          5.05414       -0.58435        1.47147
N          5.37818       -0.88719        2.81856
N          6.75358       -1.38358        2.84023
H          3.13603       -0.81388       -2.43063
H          3.26180       -2.18726       -1.28651
H          4.61244       -1.02426       -1.43217
H          3.24735       -1.80371        1.44103
H          3.05171       -0.18586        2.14641
H          5.30922        0.46368        1.09678
H          5.57106       -1.27194        0.74596
H          6.84105       -1.86957        3.73835
H          7.41001       -0.57767        2.94585
