26

N          4.37526        2.42750       -1.36372
C          4.29598        1.12460       -0.66553
C          4.62697        1.25845        0.82193
C          4.53075       -0.05918        1.59753
Ga         5.11378        0.09049        3.54022
C          3.77810       -0.58013        4.92039
C          2.82090       -1.68743        4.46056
C          3.56401       -2.94849        4.02604
S          2.47999       -4.28304        3.38306
Br         7.11480       -1.42517        3.72918
H          4.32403        2.28641       -2.37444
H          5.29460        2.83923       -1.18554
H          4.96623        0.35698       -1.10184
H          3.26594        0.74577       -0.77712
H          3.96102        2.02111        1.26147
H          5.64965        1.66967        0.91639
H          5.17303       -0.82147        1.12715
H          3.49651       -0.44431        1.54948
H          5.69401        1.53700        3.90654
H          3.18972        0.30072        5.23155
H          4.34236       -0.90385        5.81020
H          2.20749       -1.33621        3.61400
H          2.10276       -1.96713        5.25817
H          4.18151       -3.35090        4.84031
H          4.25119       -2.73306        3.19445
H          1.70242       -4.39954        4.48664
