34

N          0.93501        0.16065       -0.50204
C          2.36892        0.15568       -0.08616
C          3.20846        1.11801       -0.89253
Sb         5.37343        1.28641       -0.15250
C          5.88255       -0.67182       -1.33931
O          5.42926       -1.87675       -0.60877
C          5.70370       -3.05030       -1.14489
F          5.17004       -3.24944       -2.40278
F          7.04973       -3.31697       -1.28658
F          5.19684       -4.03592       -0.35248
C          5.84846        2.37927       -2.10783
C          7.33106        2.54276       -2.39969
C          7.66275        3.46581       -3.58580
C          9.16676        3.65493       -3.81519
H          0.44524       -0.61601       -0.04644
H          0.89245       -0.03856       -1.50506
H          2.81598       -0.85501       -0.14526
H          2.39089        0.44013        0.98016
H          2.79585        2.13859       -0.86124
H          3.27621        0.79970       -1.94684
H          4.99877        0.29954        1.29365
H          4.99462        2.82873        0.70529
H          7.11026        1.39643        0.32951
H          6.97267       -0.74269       -1.47127
H          5.38143       -0.66793       -2.31921
H          5.34563        3.35499       -2.00236
H          5.33676        1.82223       -2.90982
H          7.78630        1.55288       -2.58809
H          7.84636        2.92681       -1.49910
H          7.18926        4.44791       -3.41321
H          7.19463        3.06564       -4.50221
H          9.65301        4.06416       -2.91597
H          9.37490        4.34309       -4.64914
H          9.65943        2.69692       -4.04314
