27

N          6.82826       -1.18038        1.99782
C          5.78249       -0.13674        1.87055
C          5.70976        0.39452        0.44043
C          4.68139        1.52619        0.26408
Ga         5.18285        3.24763        1.28514
C          3.92937        4.87827        0.96789
C          4.41033        5.91968       -0.05218
C          4.17279        5.56566       -1.50766
O          4.08692        6.37254       -2.41702
O          4.06733        4.23538       -1.77592
N          6.95834        3.89910        0.77307
H          6.93815       -1.43281        2.98246
H          7.72406       -0.76953        1.72179
H          5.92685        0.71440        2.55923
H          4.81639       -0.60015        2.13600
H          5.51367       -0.46235       -0.23232
H          6.71404        0.77318        0.16727
H          3.69063        1.18335        0.61493
H          4.56228        1.71446       -0.81711
H          5.20275        2.99431        2.87904
H          3.96369        5.33780        1.96838
H          2.86923        4.62238        0.79546
H          5.50726        6.03181        0.05254
H          3.97652        6.92478        0.08249
H          4.14824        3.75692       -0.91540
H          7.27861        3.51914       -0.12112
H          7.65780        3.60299        1.45682
