63

F          0.97344       -1.86152        1.92911
C          2.24541       -1.57257        1.48096
O          2.42116       -1.78508        0.18451
C          2.24511       -3.14669       -0.30599
As         2.39083       -3.03191       -2.41601
C          4.70878       -3.00963       -2.39302
C          5.62158       -3.47986       -1.24927
F          5.39365       -4.78801       -0.94782
F          6.96371       -3.37989       -1.52430
F          5.40652       -2.75573       -0.12389
F          5.17870       -3.66922       -3.53509
F          5.03180       -1.67250       -2.59234
C          2.20124       -5.12138       -2.42617
C          0.99163       -5.64749       -1.95434
C          0.75276       -7.02337       -1.93769
C          1.72070       -7.93555       -2.40540
C          2.92571       -7.40025       -2.89629
C          3.15891       -6.02013       -2.90933
Si         1.40402       -9.77459       -2.25880
C          1.13811      -10.16469       -0.41001
C          2.28839       -9.64700        0.46090
C          2.21390       -9.93667        1.95825
C          1.53128       -8.87276        2.89862
C          0.01003       -8.48436        2.74239
C         -1.14786       -9.54386        2.92887
C         -1.33447      -10.33986        4.28334
C         -1.54072       -9.54124        5.62377
F         -2.50407       -8.61167        5.49467
F         -1.92129      -10.41872        6.57838
F         -0.40876       -8.94878        6.02827
F         -2.46466      -11.08397        4.10436
F         -0.29448      -11.18780        4.46104
F         -2.30490       -8.85651        2.71419
F         -1.04070      -10.48907        1.95991
F         -0.22849       -7.49266        3.64669
F         -0.16612       -7.96420        1.49813
F          1.70746       -9.27576        4.19102
F          2.20558       -7.70127        2.72989
F          1.63782      -11.15783        2.22322
F          3.50095      -10.00830        2.45805
C         -0.16988      -10.29164       -3.16882
C          2.86143      -10.79292       -2.90204
F          2.46198       -0.25901        1.74463
F          3.08616       -2.29035        2.29335
H          1.24341       -3.50140       -0.02916
H          3.02397       -3.79624        0.11206
H          2.64462       -3.03164       -3.98290
H          2.56590       -1.47205       -2.28793
H          0.81774       -2.93421       -2.56343
H          0.20986       -4.96536       -1.60374
H         -0.20482       -7.38882       -1.55001
H          3.70634       -8.06652       -3.27568
H          4.10514       -5.64977       -3.30501
H          1.01345      -11.25046       -0.27943
H          0.18348       -9.70346       -0.12538
H          2.42767       -8.56365        0.32920
H          3.23603      -10.11309        0.15001
H         -1.03191       -9.70421       -2.82255
H         -0.39550      -11.35609       -3.00788
H         -0.06352      -10.12158       -4.24916
H          3.79556      -10.55651       -2.37363
H          3.02991      -10.60643       -3.97190
H          2.66182      -11.86673       -2.77377
