24

I          1.06235       -0.15380       -0.56900
Ga         3.58395       -0.81329       -0.41744
S          4.59333        0.08944        1.72545
O          3.85650       -0.09805        2.98700
O          5.98420       -0.42151        1.66221
C          5.00492        2.03579        1.75739
C          3.82948        3.03452        1.84444
F          3.14178        2.88897        2.99047
F          4.28039        4.32537        1.80009
F          2.98960        2.86291        0.80369
F          5.82083        2.24552        2.82436
F          5.71392        2.35060        0.61818
C          4.67034        0.13251       -1.80513
C          6.12558       -0.38045       -1.87860
C          7.00958        0.56234       -2.68413
O          7.19745        0.46422       -3.89732
N          7.58993        1.56293       -1.94282
H          3.73841       -2.31296        0.01250
H          4.64238        1.20326       -1.55642
H          4.16863        0.02363       -2.77746
H          6.15718       -1.36069       -2.37225
H          6.54054       -0.49715       -0.86541
H          7.31197        1.71968       -0.98045
H          8.03859        2.32051       -2.44437
