24

N          0.96072        0.18458       -0.25667
C          2.41971        0.12630       -0.03543
C          3.12772        1.30867       -0.69212
C          4.65086        1.23277       -0.56539
C          5.41815        2.38664       -1.25489
C          5.12908        3.79514       -0.79338
S          5.73149        4.27011        0.65550
O          6.93527        3.53693        1.05467
O          5.63838        5.70855        0.91157
F          4.64305        3.70117        1.93836
C          4.05889        4.62970       -1.44590
H          0.51331       -0.65825        0.10773
H          0.77477        0.19491       -1.26212
H          2.87691       -0.81571       -0.40534
H          2.59548        0.15826        1.05214
H          2.76380        2.24279       -0.24053
H          2.84844        1.34132       -1.76369
H          5.00276        0.26863       -0.98440
H          4.92329        1.23378        0.50254
H          5.20602        2.34596       -2.34175
H          6.49376        2.17170       -1.13944
H          3.01695        4.29056       -1.26514
H          4.19761        4.63074       -2.54387
H          4.12364        5.67149       -1.10465
