56

N          2.77234        0.06708        2.92336
C          2.60374       -0.98447        2.05201
O          1.51117       -1.19728        1.52200
C          3.82252       -1.86733        1.85062
C          5.18333       -1.15467        1.76099
N          6.22321       -2.12349        1.60139
C          7.46748       -1.65579        1.50402
C          8.55398       -2.59818        1.37528
C          9.87130       -2.20436        1.29617
C         10.26694       -0.83242        1.32035
C          9.21122        0.10430        1.43646
C          7.87643       -0.26760        1.52363
Si        12.03957       -0.36610        1.48070
C         12.57674       -0.68780        3.29736
C         11.63039        0.02924        4.26654
C         11.77471       -0.27295        5.75352
C         10.85621       -1.39111        6.37589
C         10.93376       -2.88787        5.88492
C         12.24479       -3.75373        6.06225
C         12.87394       -4.02931        7.48750
C         11.99736       -4.71835        8.59765
F         11.41058       -5.83649        8.13426
F         12.81375       -5.06067        9.62110
F         11.05519       -3.89392        9.07667
F         13.92325       -4.87312        7.25679
F         13.36623       -2.87860        8.00345
F         11.94935       -4.97174        5.52581
F         13.24292       -3.20501        5.32419
F          9.94515       -3.56061        6.54754
F         10.64729       -2.91774        4.56218
F         11.05400       -1.40287        7.72950
F          9.56487       -1.01843        6.15104
F         13.07320       -0.55265        6.11684
F         11.41795        0.85440        6.47976
C         13.20050       -1.40656        0.40083
C         12.35591        1.46726        1.10347
H          2.02062        0.74373        2.98428
H          3.70790        0.34444        3.20332
H          3.65241       -2.45588        0.94033
H          3.86935       -2.58955        2.68379
H          5.33712       -0.53498        2.68649
H          5.13467       -0.40967        0.92849
H          8.28439       -3.65677        1.35136
H         10.63759       -2.98379        1.21430
H          9.44470        1.17505        1.46276
H          7.12030        0.51532        1.60502
H         13.62125       -0.38886        3.47716
H         12.52951       -1.77706        3.42774
H         10.58169       -0.15154        3.98017
H         11.77918        1.11779        4.19675
H         13.06589       -2.48006        0.59569
H         14.25557       -1.15824        0.59103
H         12.99133       -1.23345       -0.66419
H         11.75784        2.12934        1.74578
H         12.09352        1.69656        0.06093
H         13.41620        1.71886        1.25427
