29

N          3.49753       -1.63773        1.56855
Ta         2.99736        0.02077        0.62661
S          3.22061       -1.22626       -1.55302
O          2.94623       -0.71702       -2.90777
O          4.61177       -1.70004       -1.26573
C          2.28874       -2.92864       -1.64220
F          0.94633       -2.76391       -1.75284
F          2.70535       -3.63163       -2.72629
F          2.50736       -3.71622       -0.55157
C          4.27967        1.57500        1.56973
C          5.77301        1.51181        1.20445
C          6.71597        2.32576        2.11478
C          6.91831        1.71176        3.49823
N          7.81215        2.54846        4.32503
H          4.08000       -2.38991        1.20606
H          3.08657       -1.87881        2.47020
H          3.81379        0.80605       -0.75704
H          1.86944        0.90986        1.68186
H          1.29417       -0.04904        0.05072
H          4.13617        1.39797        2.65543
H          3.88739        2.59113        1.38783
H          5.89502        1.86032        0.16780
H          6.12905        0.46446        1.19511
H          6.33100        3.35244        2.23407
H          7.70848        2.41360        1.63116
H          7.28690        0.67323        3.37117
H          5.95087        1.64354        4.01954
H          8.71930        2.63218        3.85999
H          7.99543        2.08938        5.21912
