20

C          0.88524        0.05901        0.00609
C          2.41655        0.06620        0.04843
C          2.99162        0.36964        1.43673
C          4.52397        0.37808        1.48235
C          5.09064        0.68085        2.86622
S          6.92512        0.69245        2.90140
O          7.31243       -0.66986        2.47537
O          7.30665        1.75320        1.94383
O          7.24973        1.00203        4.30836
H          0.50232       -0.16176       -1.00186
H          0.47426        1.03381        0.31210
H          0.47251       -0.69783        0.69154
H          2.80217        0.80847       -0.67141
H          2.79996       -0.90996       -0.29499
H          2.60521       -0.37428        2.15788
H          2.60707        1.34765        1.78076
H          4.91625        1.12528        0.77266
H          4.91515       -0.59745        1.14913
H          4.77855       -0.07177        3.60668
H          4.77587        1.67306        3.22503
