34

S          1.85141        1.90732        0.70811
Nb         3.48280        0.18345        0.16346
C          4.69677       -0.96816        1.61129
C          4.14916       -1.83193        2.59195
C          4.94639       -2.53267        3.49852
C          6.34532       -2.42175        3.47344
C          6.90911       -1.57760        2.51737
C          6.10446       -0.86330        1.61505
C          8.40103       -1.43335        2.42683
F          9.06173       -1.97018        3.49499
F          8.92119       -2.04664        1.31378
F          8.79891       -0.12703        2.34558
C          4.32471       -3.41042        4.54736
F          3.03593       -3.75019        4.27609
F          5.00830       -4.58779        4.71766
F          4.30943       -2.81483        5.78550
C          4.73878        0.90158       -1.49394
C          4.42354        0.28724       -2.85790
S          2.86566        0.98668       -3.51522
C          2.73282        0.02048       -5.04421
H          0.85835        1.72526       -0.20583
H          3.79115        0.98255        1.70635
H          1.91058       -0.47566       -0.24143
H          3.42336       -1.58200       -0.11588
H          3.06711       -1.97361        2.63675
H          6.96736       -2.97599        4.17333
H          6.60787       -0.19551        0.90962
H          5.73654        0.54529       -1.16655
H          4.79159        2.00109       -1.54801
H          4.29457       -0.80462       -2.77624
H          5.21575        0.47589       -3.60595
H          1.80475        0.32808       -5.54350
H          2.67683       -1.05600       -4.82816
H          3.57933        0.21554       -5.71936
