18

F          1.12465       -1.64755        0.10102
As         2.30156       -0.23285        0.42234
S          3.87917        1.76822        0.72590
O          5.30610        1.32993        0.82178
O          3.60039        2.88613       -0.21232
C          3.53270        2.47385        2.38655
C          3.70834       -1.41284        1.42967
N          4.87533       -1.71750        0.65959
H          3.14872       -0.55335       -0.94028
H          1.38741        0.79086       -0.32228
H          1.56012        0.09672        1.83874
H          3.70587        1.70488        3.14869
H          2.49409        2.82243        2.41288
H          4.23558        3.30921        2.50436
H          3.12330       -2.30883        1.68581
H          3.96462       -0.84776        2.33579
H          5.38819       -0.84329        0.49399
H          4.60544       -2.07882       -0.26102
