66

C          9.54897        4.24312        3.81789
C          8.92910        3.18064        2.90689
C          9.49026        1.77528        3.14610
C          8.86485        0.69985        2.25260
C          9.42585       -0.70524        2.49369
C          8.76444       -1.78852        1.63611
C          9.30986       -3.19888        1.89375
C          8.60395       -4.29237        1.07717
Si         9.15914       -6.08339        1.41763
C          8.82219       -6.56517        3.19803
C          7.88065       -5.88193        3.99676
C          7.62828       -6.27332        5.31603
C          8.28951       -7.36039        5.90251
C          9.21777       -8.04668        5.10728
C          9.48544       -7.66187        3.79073
P          7.96271       -7.89237        7.76923
C          6.91813       -9.42947        7.19172
C          7.33897      -10.72820        7.49601
C          6.57461      -11.84893        7.14964
C          5.35012      -11.70536        6.47903
C          4.92115      -10.40383        6.17214
C          5.69587       -9.29223        6.52099
C          4.52396      -12.90926        6.08850
C          9.01760       -6.39342        8.39095
C          8.21643       -7.20669        0.21210
C         11.00859       -6.24894        1.02226
H          9.13077        5.24108        3.62272
H         10.63838        4.30347        3.67346
H          9.37129        4.00836        4.87817
H          9.08827        3.46016        1.85137
H          7.83570        3.16273        3.05324
H          9.33956        1.49991        4.20477
H         10.58390        1.78981        2.99148
H          9.00990        0.97543        1.19258
H          7.77233        0.68601        2.41426
H          9.30538       -0.96694        3.55934
H         10.51427       -0.70120        2.30523
H          8.88463       -1.53804        0.56637
H          7.67628       -1.78637        1.82643
H          9.21972       -3.42711        2.96872
H         10.39203       -3.21036        1.67549
H          8.73514       -4.09874       -0.00306
H          7.51485       -4.23894        1.25459
H          7.33690       -5.02504        3.58361
H          6.89454       -5.72058        5.91530
H          9.74340       -8.90535        5.54269
H         10.22402       -8.22858        3.21173
H          6.71457       -7.07389        7.74743
H          7.70261       -8.32685        9.17254
H          9.18707       -8.74688        7.72091
H          8.29106      -10.85844        8.02543
H          6.92577      -12.85500        7.40603
H          3.96794      -10.26421        5.64959
H          5.34164       -8.28548        6.27235
H          4.91803      -13.82732        6.54798
H          4.51804      -13.06348        4.99656
H          3.47354      -12.80073        6.40135
H          8.47665       -5.44224        8.25859
H          9.97203       -6.33568        7.84482
H          9.22599       -6.53873        9.46336
H          7.13171       -7.13621        0.37712
H          8.50329       -8.25806        0.35892
H          8.42298       -6.93976       -0.83589
H         11.61587       -5.60022        1.66904
H         11.21499       -5.98107       -0.02509
H         11.35291       -7.28162        1.17691
