48

S          5.39891       -2.90196        0.13257
C          4.92653       -1.12514        0.07397
C          5.34876       -0.54789       -1.27533
C          5.00336        0.94772       -1.35628
C          5.43278        1.73175       -2.62585
C          4.66031        1.30905       -3.88783
C          3.07686        1.14706       -3.90127
C          2.01956        2.24035       -3.47543
C          1.85190        3.52583       -4.41278
F          2.85593        3.71004       -5.27095
F          0.72129        3.37563       -5.16831
F          1.67732        4.62404       -3.66437
F          0.80810        1.57562       -3.54122
F          2.16429        2.59353       -2.18432
F          2.73109        0.80801       -5.18655
F          2.77877        0.06327       -3.10979
F          4.98715        2.07551       -4.97118
F          5.05753        0.00704       -4.26358
C          5.20380        3.28909       -2.28880
O          5.92291        3.71716       -1.35741
O          4.35125        3.88492       -2.98989
C          6.95652        1.52461       -2.84694
C          7.65847        2.45347       -3.84633
C          9.18021        2.34709       -3.72107
C          9.92116        3.18653       -4.75939
N         11.36377        3.04730       -4.59466
C         12.26247        3.66438       -5.44280
N         12.02060        4.51286       -6.38492
N         13.59300        3.27155       -5.19835
H          4.99821       -3.14442        1.40282
H          5.42915       -0.59754        0.89639
H          3.83974       -1.04001        0.21139
H          4.85651       -1.11186       -2.08007
H          6.43259       -0.69666       -1.39770
H          5.50895        1.48270       -0.53653
H          3.92558        1.08041       -1.18302
H          7.16918        0.47833       -3.11859
H          7.39820        1.70753       -1.85509
H          7.34782        3.49213       -3.65651
H          7.35990        2.21046       -4.87663
H          9.48736        1.28993       -3.83277
H          9.49111        2.66281       -2.71128
H          9.65175        4.24866       -4.64107
H          9.60548        2.88258       -5.77652
H         11.66552        2.14905       -4.22701
H         11.01402        4.61324       -6.53843
H         13.83463        3.25384       -4.20971
H         14.22782        3.86701       -5.72440
