40

C          0.83399        0.36637       -0.36602
O          2.22816        0.18918       -0.50232
C          2.81642       -0.36025        0.67309
C          4.31016       -0.53197        0.43791
O          4.85580       -1.04603        1.63410
C          6.25656       -1.35619        1.50636
C          6.68432       -1.89045        2.87362
C          8.15549       -2.28956        3.09475
S          8.78252       -3.50045        1.87089
O          8.70913       -2.94391        0.52777
O         10.00941       -4.12895        2.32468
C          7.46307       -4.98005        1.76930
C          8.06132       -6.35889        1.31751
C          8.70907       -7.26751        2.45124
C          7.77855       -8.40505        3.02255
F          7.55067       -9.36745        2.10578
F          8.40382       -8.98072        4.07453
F          6.59674       -7.92670        3.45081
F          9.79052       -7.90428        1.91938
F          9.12119       -6.52616        3.49985
F          7.05423       -7.10045        0.74061
F          8.98613       -6.13830        0.35495
F          6.79757       -5.15749        2.95108
F          6.53697       -4.62881        0.83833
C          9.24497       -0.93041        2.99186
O         10.19594       -1.06808        3.76886
O          8.85433       -0.05361        2.21781
S          8.46947       -2.87640        4.78170
H          0.46568        0.79610       -1.30698
H          0.58692        1.05614        0.46492
H          0.31444       -0.59473       -0.18222
H          2.36085       -1.34091        0.91340
H          2.64943        0.30836        1.54041
H          4.76713        0.44129        0.16925
H          4.48088       -1.22357       -0.41170
H          6.84044       -0.45902        1.25201
H          6.39139       -2.10035        0.70565
H          6.01473       -2.72460        3.13783
H          6.49302       -1.09792        3.61214
H          7.38129       -3.69150        4.86791
