30

N          2.24098       -0.82028       -0.27340
C          3.08378        0.30535       -0.72356
C          3.73241        1.03189        0.45630
C          4.66285        0.16294        1.33528
C          5.29629        0.86405        2.51517
S          4.37189        1.10418        3.84728
O          3.26768        0.14937        3.97185
O          5.11414        1.52287        5.03758
F          3.38935        2.57464        3.61800
C          6.66506        1.48133        2.41902
C          6.85773        2.70038        1.47282
C          6.05530        3.91689        1.94150
C          8.34778        3.04020        1.33808
H          1.53338       -1.04294       -0.97367
H          1.73988       -0.54828        0.57548
H          2.51789        1.04784       -1.32272
H          3.86981       -0.10176       -1.38676
H          2.94153        1.45107        1.10198
H          4.29140        1.89736        0.06562
H          5.47882       -0.23113        0.69801
H          4.09225       -0.71244        1.68024
H          7.37622        0.69908        2.07526
H          6.99811        1.77366        3.42882
H          6.49044        2.40749        0.47172
H          6.44476        4.28333        2.90554
H          5.00031        3.65823        2.10298
H          6.11590        4.74419        1.21562
H          8.76760        3.32558        2.31705
H          8.51482        3.88151        0.64671
H          8.92460        2.17696        0.96955
