20

Cl         3.10735        2.08583        1.26337
B          2.84796        0.50190        0.18628
C          1.24705        0.32056       -0.05806
F          0.47711        0.20402        1.08352
F          0.62623        1.32299       -0.79055
F          0.96587       -0.84325       -0.77806
C          3.65536        0.63660       -1.21471
C          5.17998        0.62422       -1.05984
C          5.95824        0.78011       -2.37207
C          7.47934        0.74955       -2.18879
H          3.21649       -0.45403        0.85484
H          3.35330        1.56229       -1.73992
H          3.35881       -0.19998       -1.87653
H          5.48592       -0.31893       -0.57018
H          5.47788        1.43075       -0.36718
H          5.66358        1.72905       -2.85324
H          5.65537       -0.01865       -3.07241
H          7.80868        1.54654       -1.50360
H          8.01739        0.88262       -3.14078
H          7.80456       -0.20835       -1.75227
