31

N          2.29540       -0.94062        0.26217
C          2.21627        0.53408        0.26631
In         3.03198        1.30978        2.19369
S          1.70180       -0.40221        3.83433
O          0.77772       -1.26047        3.02528
O          2.59117       -1.13706        4.78179
C          0.57064        0.52554        4.94441
C          5.10636        0.56769        2.56436
C          5.52430        0.49867        4.03425
C          6.93884       -0.09612        4.20962
C          7.41868       -0.13041        5.64534
C          8.85822       -0.69683        5.84604
F          8.94676       -1.97105        5.39607
F          9.76985        0.04565        5.16886
F          9.21800       -0.69507        7.15052
F          7.44362        1.13694        6.19869
F          6.59943       -0.89584        6.44037
H          1.84039       -1.32702       -0.57005
H          1.77586       -1.31093        1.06550
H          1.19835        0.93726        0.09611
H          2.85837        0.92962       -0.53941
H          2.58234        2.91534        2.79309
H         -0.12574        1.11609        4.33678
H          1.17323        1.17150        5.59456
H          0.03737       -0.23471        5.53136
H          5.80685        1.19718        1.98745
H          5.12965       -0.43504        2.10761
H          4.80557       -0.11565        4.59683
H          5.50827        1.50370        4.48443
H          7.67350        0.48372        3.62855
H          6.96189       -1.12801        3.82623
