26

I          1.18062       -0.16922       -0.63765
Nb         3.76406       -0.73065        0.24300
C          4.94323       -1.36853       -1.53112
C          4.79236       -0.54297       -2.82713
C          5.10794        0.94631       -2.62544
C          5.66810       -1.11335       -3.95775
C          4.74195        1.11745        0.95661
O          4.68143        1.51489        2.38024
C          5.36133        2.59386        2.72938
F          6.71959        2.50994        2.50725
F          4.97034        3.75318        2.09156
F          5.19702        2.81081        4.06186
H          4.54309       -2.25342        0.58911
H          2.89022       -1.85923        1.24259
H          4.30910       -0.96435        1.88081
H          4.71483       -2.42814       -1.74173
H          6.00598       -1.36748       -1.20748
H          3.73921       -0.61498       -3.15437
H          6.12349        1.07971       -2.21694
H          4.40147        1.42224       -1.92942
H          5.05280        1.50383       -3.57424
H          6.73483       -1.04884       -3.68529
H          5.52752       -0.56594       -4.90582
H          5.43801       -2.17428       -4.13676
H          4.42548        1.99988        0.36870
H          5.80390        0.91347        0.70700
