48

N          2.56733        2.44595        0.65060
C          3.69971        1.64393        0.13616
C          3.60550        0.18903        0.60321
C          4.71301       -0.71172        0.08232
Sb         4.64759       -2.79606        0.97157
C          4.39769       -4.92699        1.74307
C          3.04653       -5.10825        2.41308
C          2.71653       -6.59183        2.67004
C          1.31897       -6.92992        3.14759
C          0.88212       -6.36927        4.53798
F          0.75056       -5.02933        4.52060
F         -0.30879       -6.89456        4.91866
F          1.79482       -6.69285        5.48831
F          0.36052       -6.51867        2.24997
F          1.18500       -8.30942        3.25433
C          6.52666       -2.27165        2.20067
C          7.15620       -3.34157        3.08262
C          8.45165       -2.91522        3.80065
C          9.09772       -4.01996        4.64743
C         10.41377       -3.59970        5.31158
H          2.74634        3.44240        0.51369
H          2.49886        2.30721        1.66161
H          4.68917        2.04515        0.43768
H          3.66699        1.68203       -0.96604
H          2.62014       -0.21326        0.31046
H          3.61239        0.17854        1.71087
H          5.71134       -0.30227        0.30688
H          4.63864       -0.87251       -1.00455
H          3.61365       -2.19453        2.35751
H          5.73816       -3.41483       -0.35034
H          3.15452       -3.13508       -0.02047
H          5.22742       -5.19706        2.41304
H          4.48026       -5.52836        0.82382
H          2.25877       -4.66857        1.77577
H          3.02385       -4.54683        3.35986
H          3.42368       -7.02687        3.39302
H          2.83363       -7.15990        1.73312
H          6.22066       -1.39586        2.79944
H          7.24447       -1.92940        1.43536
H          7.38434       -4.23685        2.47439
H          6.42891       -3.67557        3.84588
H          8.24153       -2.03891        4.44049
H          9.17871       -2.56565        3.04531
H          9.27635       -4.90361        4.01050
H          8.38428       -4.34978        5.42234
H         11.16063       -3.30110        4.55956
H         10.85212       -4.41422        5.90853
H         10.26630       -2.73927        5.98271
