19

S          2.45151        0.05093       -2.63796
Ga         3.53743        0.15566       -0.54504
C          4.35101       -1.65659       -0.09848
C          4.98862       -1.69110        1.29672
C          6.24413       -0.82274        1.43733
C          3.28024       -2.73876       -0.25322
S          1.85709        0.42149        1.07561
H          3.53267        0.52635       -3.30102
H          4.48909        1.43922       -0.57278
H          5.14383       -1.83315       -0.85046
H          5.24925       -2.73760        1.56566
H          4.24278       -1.36712        2.04426
H          7.02815       -1.14683        0.73371
H          6.66387       -0.87754        2.45445
H          6.02262        0.23162        1.21677
H          2.44471       -2.57149        0.44692
H          3.67595       -3.75418       -0.04999
H          2.85568       -2.73237       -1.26816
H          1.71692        1.74391        0.83104
