34

N          1.08376        2.54438        0.94199
C          2.50637        2.64404        0.54038
C          2.89190        1.42532       -0.30209
C          4.40545        1.27690       -0.59042
C          5.14926        1.21663        0.83265
O          5.83592        2.22311        1.14110
O          4.91338        0.17892        1.50954
C          4.69425        0.01866       -1.45556
C          4.13901       -1.34361       -0.96929
C          2.81452       -1.71610       -1.65080
C          5.17288       -2.45408       -1.19829
C          4.83256        2.52250       -1.36580
O          6.17585        2.32149       -1.94232
C          6.67573        3.32624       -2.63725
F          5.94435        3.64357       -3.77193
F          6.78601        4.50620       -1.94910
F          7.92028        2.99303       -3.06465
H          0.85508        3.32272        1.56386
H          0.97423        1.70056        1.51095
H          3.19999        2.71925        1.39553
H          2.61327        3.57135       -0.04619
H          2.31263        1.43944       -1.24400
H          2.58913        0.52678        0.25820
H          5.78756       -0.05976       -1.54253
H          4.32737        0.20425       -2.48564
H          3.99298       -1.25163        0.11870
H          2.95328       -1.82917       -2.74030
H          2.03931       -0.95368       -1.49517
H          2.42560       -2.67280       -1.26576
H          5.43661       -2.54299       -2.26679
H          4.78948       -3.43329       -0.86801
H          6.09409       -2.24388       -0.63674
H          4.89956        3.37890       -0.68460
H          4.14983        2.71985       -2.21096
