39

S          4.41224        1.45924       -1.94653
P          3.04888        0.55583       -0.23901
C          1.88421       -0.19775        1.22018
C          1.09458        0.75242        2.16685
C         -0.05560        1.66340        1.58568
C         -1.27133        0.99095        0.84888
F         -1.77873       -0.04082        1.55159
F         -2.25468        1.92243        0.72015
F         -0.94724        0.57345       -0.38033
F         -0.59127        2.32780        2.66125
F          0.44989        2.59246        0.73899
F          0.49923        0.02051        3.17496
F          1.97147        1.61000        2.77211
F          0.91749       -1.07680        0.72543
F          2.65601       -0.96315        2.09083
C          3.44551       -1.19959       -0.95622
C          4.82674       -1.71961       -0.58121
C          5.18461       -3.08679       -1.18271
C          5.23946       -3.08945       -2.71098
N          5.61678       -4.41022       -3.20303
C          5.67268       -4.70585       -4.55087
N          5.32816       -3.96658       -5.55082
N          6.18027       -5.99904       -4.79814
H          4.52031        2.66488       -1.34567
H          2.79204        1.91976        0.22061
H          4.19747        0.47091        0.67584
H          1.86648        0.61983       -1.11041
H          3.33177       -1.06256       -2.04345
H          2.65559       -1.89407       -0.62770
H          4.89600       -1.79766        0.51583
H          5.58232       -0.97313       -0.88127
H          4.45335       -3.84545       -0.85498
H          6.17166       -3.40850       -0.79773
H          5.94377       -2.30934       -3.05983
H          4.25000       -2.83720       -3.12125
H          6.29045       -4.90697       -2.62603
H          5.10457       -3.01604       -5.24491
H          5.77297       -6.71117       -4.19506
H          6.05129       -6.23006       -5.78029
