61

C          8.66805       -0.88768       -6.04950
C          8.25968       -0.79119       -4.57794
C          8.87932       -1.88408       -3.70165
C          8.47270       -1.78866       -2.22893
C          9.08384       -2.87389       -1.33755
C          8.66411       -2.74951        0.12930
C          9.25738       -3.81504        1.05921
C          8.81601       -3.63515        2.51763
Si         9.45168       -4.86145        3.82798
C          8.70493       -4.30831        5.45748
C          7.30938       -4.37070        5.65479
C          6.70585       -3.80227        6.78081
C          7.45115       -3.13594        7.77484
C          8.84635       -3.11422        7.58812
C          9.46193       -3.67892        6.46390
In         6.49606       -2.12932        9.52965
C          5.09385       -3.74880       10.39496
F          4.25726       -4.38229        9.47598
F          5.77777       -4.80210       11.00128
F          4.22175       -3.30720       11.38932
C          8.04393       -1.90105       11.13891
C          8.22701       -0.51201       11.75135
C          9.28229       -0.51763       12.86199
S          9.53226        1.08272       13.74539
C          8.90838       -6.61651        3.35739
C         11.34596       -4.81522        3.88012
H          8.20681       -0.09239       -6.65214
H          8.36540       -1.85295       -6.48285
H          9.75928       -0.80336       -6.16476
H          7.16075       -0.84264       -4.49552
H          8.54580        0.19677       -4.17906
H          9.97996       -1.83402       -3.78158
H          8.59250       -2.87454       -4.09778
H          7.37196       -1.83576       -2.15239
H          8.75828       -0.79640       -1.83708
H         10.18522       -2.82931       -1.40950
H          8.79474       -3.86878       -1.72058
H          7.56267       -2.79073        0.19785
H          8.94910       -1.75116        0.50555
H         10.35900       -3.77918        0.98941
H          8.96448       -4.81516        0.69386
H          7.71325       -3.65635        2.57721
H          9.09979       -2.62791        2.87052
H          6.67463       -4.86235        4.90812
H          5.61890       -3.88072        6.88126
H          9.48497       -2.63471        8.33811
H         10.55114       -3.61674        6.36782
H          5.54631       -0.69803        9.11939
H          9.00199       -2.26225       10.72661
H          7.75406       -2.62228       11.92095
H          7.27870       -0.13284       12.16486
H          8.53112        0.21745       10.97982
H         10.25366       -0.85900       12.47613
H          8.98748       -1.21170       13.66375
H          9.77313        1.82816       12.64086
H          7.81259       -6.70554        3.34574
H          9.29106       -7.34878        4.08284
H          9.28069       -6.90066        2.36166
H         11.71987       -3.80717        4.10920
H         11.77152       -5.11902        2.91227
H         11.73767       -5.49968        4.64637
