45

S          2.14727       -1.32766        0.35178
C          3.34654        0.07537        0.36084
C          3.96593        0.21628       -1.03143
C          5.03966        1.30671       -1.09940
Ga         5.81022        1.46732       -2.96388
S          3.99319        2.99357       -3.87546
O          2.71957        2.77753       -3.15201
O          4.41709        4.40037       -4.06030
C          3.39091        2.47114       -5.70489
C          4.43525        2.62156       -6.83985
C          4.03513        2.07264       -8.25528
F          3.83288        0.74105       -8.24381
F          2.91340        2.67074       -8.71050
F          5.02946        2.33048       -9.14325
F          4.73132        3.93873       -7.01634
F          5.57536        1.96002       -6.47861
F          2.98432        1.16629       -5.65545
F          2.30590        3.24191       -6.00366
C          7.55389        2.40384       -3.35048
C          7.69381        3.90253       -3.04646
C          7.36506        4.31537       -1.60506
C          8.26299        3.68862       -0.53463
C          7.93182        4.15766        0.88528
C          8.83628        3.54518        1.95736
H          1.73177       -1.20774        1.63498
H          4.12097       -0.12749        1.11444
H          2.81288        0.99522        0.63633
H          3.16565        0.44225       -1.75337
H          4.39501       -0.75423       -1.33383
H          5.86641        1.08218       -0.40171
H          4.61808        2.27684       -0.79222
H          5.57015        0.15857       -3.83617
H          7.75685        2.22718       -4.41852
H          8.31926        1.82016       -2.80679
H          7.02323        4.46285       -3.71490
H          8.72342        4.24221       -3.27839
H          6.31345        4.06122       -1.39022
H          7.43209        5.41511       -1.52588
H          9.32048        3.92347       -0.75933
H          8.17976        2.58955       -0.57583
H          6.87967        3.91135        1.10606
H          8.00033        5.25858        0.92877
H          8.75881        2.44726        1.95916
H          8.57354        3.89938        2.96522
H          9.89265        3.79935        1.77839
