40

C          3.19396       -1.34990        0.28147
S          4.48198       -0.53598       -0.70583
C          5.55120        0.14640        0.61558
C          4.90345        1.23310        1.47348
C          5.81143        1.76905        2.61263
C          6.19007        0.64100        3.56420
C          7.51556        0.33100        3.91637
C          7.81347       -0.70528        4.80867
C          6.80529       -1.47762        5.39595
C          5.47815       -1.16716        5.05487
C          5.17715       -0.13748        4.16643
C          7.12489       -2.57526        6.38196
C          4.92834        2.82461        3.50783
O          3.71058        2.54546        3.60713
O          5.58159        3.77690        4.00047
C          7.04903        2.50178        2.06025
C          6.71144        3.64069        1.09060
S          8.05760        4.86754        0.91109
C          7.81604        5.79954        2.45922
H          2.52997       -1.86115       -0.42770
H          2.60692       -0.62603        0.86062
H          3.63228       -2.09456        0.96050
H          6.42356        0.53086        0.06336
H          5.90570       -0.69186        1.23448
H          3.97908        0.86873        1.93854
H          4.59316        2.06958        0.82934
H          8.34058        0.90199        3.48966
H          8.85953       -0.91495        5.05239
H          4.66109       -1.73989        5.50454
H          4.13655        0.11649        3.95893
H          8.16223       -2.92294        6.27198
H          6.46044       -3.44246        6.25030
H          7.00343       -2.23228        7.42317
H          7.74485        1.80660        1.55776
H          7.58193        2.92920        2.91940
H          5.81661        4.18365        1.42363
H          6.52481        3.27512        0.06969
H          8.78630        6.21305        2.76378
H          7.42706        5.12669        3.23739
H          7.09837        6.61822        2.31355
