24

N          3.62733       -0.41148       -0.36083
C          2.64564        0.52269        0.19698
Nb         2.31124       -1.40855        1.25028
C          1.78577       -2.39099        3.29644
C          1.89107       -3.91488        3.39813
C          1.75770       -4.58504        4.76836
O          2.05114       -5.76621        4.99297
N          1.24981       -3.77410        5.74862
N          4.14075       -2.16807        1.72180
H          4.60888       -0.16676       -0.22341
H          3.44427       -0.72481       -1.30730
H          1.96329        0.95666       -0.54250
H          3.14844        1.30928        0.77460
H          1.69469       -0.13362        2.37449
H          1.03445       -2.65569        1.06764
H          1.60227       -1.64164       -0.41002
H          0.76721       -2.06053        3.56361
H          2.48062       -1.90149        4.01107
H          2.84015       -4.30136        2.98671
H          1.11956       -4.37899        2.75743
H          1.18650       -2.77944        5.54327
H          1.24356       -4.11156        6.70297
H          4.97066       -2.15372        1.13238
H          4.30834       -2.74731        2.54312
