69

C         17.40109       -3.07937       -3.27553
C         16.86574       -3.28460       -1.85657
C         15.36924       -3.60743       -1.81464
C         14.81609       -3.79554       -0.39909
C         13.32686       -4.15061       -0.36410
C         12.75966       -4.31374        1.04940
C         11.27351       -4.69217        1.06974
C         10.68409       -4.84419        2.48052
Si         8.84622       -5.34169        2.53748
C          8.24253       -5.45711        4.31101
C          8.83358       -4.72453        5.36048
C          8.32526       -4.77628        6.66416
C          7.19766       -5.55557        7.00508
C          6.61784       -6.28362        5.94314
C          7.11872       -6.24378        4.63856
Al         6.38310       -5.64833        8.85998
C          6.65702       -3.85905        9.88554
C          8.02631       -3.57505       10.33791
O          8.80019       -2.73278        9.90926
O          8.49085       -4.41021       11.35742
C          7.11518       -7.20310        9.96232
C          8.56194       -7.66087        9.72293
C          8.98127       -8.89779       10.53217
C         10.41241       -9.37632       10.26544
C         10.79996      -10.61605       11.07687
C          7.83553       -4.04939        1.58142
C          8.63795       -7.01102        1.65923
H         18.47826       -2.85973       -3.27599
H         16.89003       -2.24201       -3.77449
H         17.24278       -3.97599       -3.89362
H         17.05867       -2.38051       -1.25462
H         17.42448       -4.09919       -1.36528
H         15.17888       -4.52090       -2.40596
H         14.80932       -2.80009       -2.31976
H         14.98542       -2.87290        0.18356
H         15.39048       -4.58650        0.11488
H         13.16342       -5.08403       -0.93194
H         12.75435       -3.37027       -0.89681
H         12.90320       -3.37551        1.61360
H         13.33681       -5.08354        1.59141
H         11.14327       -5.63239        0.50535
H         10.70745       -3.92728        0.50969
H         10.80798       -3.89843        3.03569
H         11.25665       -5.59801        3.04836
H          9.70763       -4.09553        5.16200
H          8.81958       -4.17486        7.43392
H          5.73019       -6.89612        6.13886
H          6.61815       -6.83189        3.86128
H          4.75779       -5.81509        8.70715
H          5.97778       -4.00301       10.74109
H          6.28608       -3.03948        9.25846
H          7.84755       -5.13814       11.44312
H          6.43416       -8.05008        9.74849
H          6.96534       -7.02024       11.04886
H          9.26439       -6.83886        9.94748
H          8.70139       -7.87718        8.64877
H          8.27601       -9.72201       10.31797
H          8.86668       -8.67872       11.60998
H         11.11576       -8.55551       10.48586
H         10.52676       -9.59018        9.18892
H         10.71906      -10.42274       12.15787
H         11.83232      -10.93763       10.87190
H         10.13480      -11.46299       10.84631
H          7.94209       -3.05629        2.04162
H          6.76694       -4.30769        1.60449
H          8.14392       -3.97454        0.52782
H          9.24171       -7.78992        2.14672
H          8.94240       -6.95068        0.60386
H          7.58990       -7.34236        1.68232
