9

Br         1.16113        0.04147       -0.48288
N          3.04235        0.38762       -0.30506
S          3.27445        1.65477        0.63229
O          2.94528        2.98162        0.09524
O          3.02432        1.50580        2.07187
C          5.16537        1.53907        0.46987
F          5.67999        0.38520        0.95813
F          5.60800        1.68133       -0.80268
F          5.70844        2.55546        1.19640
