25

C          4.55008       -2.53921       -0.93447
N          4.13677       -1.31937       -0.34934
C          4.93455       -1.02994        0.76564
C          4.54595        0.30777        1.41880
C          5.12006        0.53393        2.82181
C          6.64766        0.57604        2.86256
N          7.10840        0.89765        4.21372
C          8.43966        1.06886        4.52170
N          9.47114        0.85390        3.77421
N          8.63882        1.54835        5.83689
H          3.93563       -2.79259       -1.82008
H          4.49356       -3.44506       -0.24320
H          5.63433       -2.55624       -1.28736
H          6.05661       -0.99123        0.53053
H          4.89462       -1.82735        1.59444
H          3.44467        0.32970        1.46814
H          4.84219        1.13592        0.75101
H          4.77413       -0.26881        3.49513
H          4.73744        1.48879        3.23449
H          7.01772        1.32153        2.13170
H          7.05649       -0.40042        2.56230
H          6.46311        1.46556        4.75773
H          9.18272        0.62225        2.81975
H          8.06923        1.06038        6.52625
H          9.62727        1.48195        6.07016
