63

N          0.68052        5.16402       -1.51880
C          2.03322        5.30541       -0.94405
C          2.88909        4.07312       -1.22546
C          4.31019        4.17691       -0.65145
C          5.19821        2.94377       -0.86879
Al         7.03173        3.15232       -0.03799
C          8.08267        1.40742       -0.22155
C          8.40422        0.80511       -1.45676
C          9.09890       -0.40838       -1.54047
C          9.50287       -1.07906       -0.37945
C          9.20006       -0.50699        0.85550
C          8.50558        0.71311        0.92647
C          9.58509       -1.20869        2.12783
F         10.42713       -2.26572        1.92575
F         10.21138       -0.37928        3.01310
F          8.49660       -1.71254        2.79182
C          9.46413       -1.00635       -2.86946
F          8.76916       -0.47114       -3.90883
F         10.79356       -0.83704       -3.16907
F          9.24824       -2.35952       -2.91140
C          8.02987        4.66204       -0.96787
C          8.53597        5.76276       -0.24187
C          9.20164        6.82779       -0.85639
C          9.41257        6.85060       -2.25121
C          8.91525        5.75956       -2.99133
C          8.24042        4.70798       -2.36266
Si        10.32132        8.27700       -3.05691
C         11.90593        8.65520       -2.06083
C         12.81316        7.43783       -1.84993
C         14.06977        7.74329       -1.06572
F         13.80677        8.24294        0.17589
F         14.83892        6.62978       -0.88389
F         14.86649        8.66393       -1.69224
C         10.79891        7.85463       -4.83969
C          9.28690        9.86322       -3.06063
H          0.09717        5.95733       -1.24625
H          0.23332        4.33482       -1.12136
H          2.02638        5.49052        0.14981
H          2.50216        6.18909       -1.40824
H          2.93354        3.90470       -2.31444
H          2.39345        3.18229       -0.79619
H          4.23559        4.38755        0.43142
H          4.79900        5.06672       -1.08897
H          5.28336        2.73765       -1.95296
H          4.70429        2.05308       -0.43709
H          6.96251        3.48265        1.56874
H          8.10484        1.28851       -2.38993
H         10.03903       -2.02512       -0.43965
H          8.28789        1.13651        1.91168
H          8.40283        5.78526        0.84514
H          9.56629        7.65433       -0.23499
H          9.05701        5.72781       -4.07642
H          7.86488        3.89411       -2.99317
H         11.60510        9.06271       -1.08240
H         12.45883        9.45841       -2.57496
H         13.14462        7.00623       -2.80661
H         12.28173        6.64259       -1.30588
H         11.42677        6.95391       -4.89381
H         11.35444        8.68475       -5.30055
H          9.90635        7.66991       -5.45442
H          8.97476       10.12847       -2.04038
H          8.37571        9.73043       -3.66095
H          9.84948       10.71248       -3.47675
