19

C          1.33508        1.04258       -0.13607
C          2.27628       -0.10710        0.26854
C          3.28297        0.20422        1.35970
S          2.97076       -0.23757        2.93470
O          1.80585       -1.12567        2.99676
O          4.15432       -0.52836        3.74008
C          2.28952        1.26992        3.89024
F          1.15022        1.75852        3.32059
F          1.97993        0.95682        5.18032
F          3.18139        2.29389        3.93171
C          4.56831        0.76401        0.95972
F          5.41414       -0.14037        0.28102
F          4.43164        1.78733        0.00949
F          5.34086        1.28190        1.94920
H          0.66263        0.73121       -0.95352
H          1.90418        1.91863       -0.47549
H          0.71468        1.35255        0.71593
H          2.83347       -0.44382       -0.62308
H          1.67489       -0.96741        0.59396
