51

C          0.60556        0.01581       -0.58801
Ga         2.51884        0.16179        0.07922
C          3.49627       -1.60435       -0.23596
C          4.58231       -2.02721        0.56021
C          5.26661       -3.22131        0.32115
C          4.89727       -4.07381       -0.74216
C          3.81415       -3.66500       -1.54412
C          3.13851       -2.46843       -1.28866
Si         5.85998       -5.63034       -1.08577
C          7.70871       -5.19373       -1.32260
C          7.90554       -3.91622       -2.14654
C          9.28926       -3.64750       -2.72133
C         10.40224       -2.99411       -1.81425
C         10.98722       -3.71532       -0.53711
C         11.68604       -5.13043       -0.61819
C         12.96769       -5.36717       -1.51607
C         14.26024       -4.50878       -1.25120
F         14.59749       -4.52081        0.05149
F         15.27576       -5.05301       -1.95750
F         14.10623       -3.23928       -1.65332
F         13.32149       -6.66654       -1.29349
F         12.64456       -5.23407       -2.82285
F         12.04534       -5.43116        0.66320
F         10.77618       -6.05089       -1.01985
F         11.91270       -2.86140       -0.00707
F          9.98821       -3.84797        0.37411
F         11.47210       -2.69984       -2.61116
F          9.89802       -1.81855       -1.34118
F          9.83562       -4.77792       -3.28969
F          9.16172       -2.73077       -3.74845
C          5.77691       -6.85850        0.35184
C          5.25484       -6.47733       -2.66680
H          0.06511        0.95411       -0.38766
H          0.06161       -0.79935       -0.08573
H          0.56019       -0.16453       -1.67381
H          3.31769        1.29727       -0.74455
H          2.59188        0.46314        1.66328
H          4.90232       -1.39896        1.39872
H          6.10479       -3.49602        0.97437
H          3.48982       -4.28892       -2.38335
H          2.30014       -2.19749       -1.93904
H          8.19660       -6.05071       -1.81101
H          8.16056       -5.09655       -0.32752
H          7.59193       -3.02820       -1.57910
H          7.26143       -3.93176       -3.04067
H          6.10738       -6.37841        1.28398
H          6.41217       -7.73919        0.17498
H          4.74410       -7.20178        0.50370
H          5.34354       -5.81549       -3.53989
H          4.19848       -6.76717       -2.57743
H          5.84074       -7.38585       -2.86707
