53

C          1.46420       -0.84517        0.38174
C          2.56673        0.11777       -0.06845
C          3.34002       -0.37265       -1.29683
C          4.44195        0.58356       -1.76550
C          5.21903        0.07627       -2.99323
C          6.31766        1.00993       -3.50173
Nb         7.44072        0.49292       -5.32082
C          6.00250        0.50944       -7.00458
C          5.06213        1.56378       -6.93599
C          4.08175        1.76643       -7.91747
C          4.00372        0.92656       -9.03570
C          4.93640       -0.12026       -9.13348
C          5.89640       -0.32434       -8.13963
C          2.94631        1.12492      -10.09523
C          9.64524       -0.00568       -5.32739
C         10.24885       -1.39158       -5.05930
C          9.92781       -2.39137       -6.17646
C         10.49748       -3.76925       -5.96525
C         10.11132       -4.80895       -7.06256
F          8.77242       -4.98128       -7.12375
F         10.53617       -4.40432       -8.28569
F         10.67033       -6.02040       -6.81817
F         11.88571       -3.76333       -5.93897
F         10.09245       -4.32446       -4.76940
H          0.92283       -0.46642        1.26131
H          1.88049       -1.82992        0.64360
H          0.72724       -1.00480       -0.42044
H          3.27403        0.28284        0.76252
H          2.12576        1.10516       -0.28945
H          2.63067       -0.54283       -2.12687
H          3.78459       -1.35970       -1.07571
H          5.15322        0.75950       -0.93828
H          3.99778        1.56838       -1.99789
H          4.49146       -0.12163       -3.80199
H          5.66963       -0.90173       -2.75316
H          7.07126        1.19089       -2.71099
H          5.88500        2.00618       -3.75802
H          8.39945        2.01862       -5.66273
H          7.52401       -1.10241       -6.07224
H          7.72801       -0.83987       -4.18989
H          5.08053        2.26161       -6.08951
H          3.36700        2.59027       -7.81641
H          4.89635       -0.79257       -9.99751
H          6.58777       -1.16585       -8.23554
H          2.35810        2.03408       -9.90673
H          2.24556        0.27506      -10.12995
H          3.39151        1.21253      -11.09881
H         10.01210        0.69087       -4.54673
H         10.04814        0.40148       -6.27695
H          9.84825       -1.78393       -4.11213
H         11.34890       -1.33208       -4.94791
H         10.30764       -2.02301       -7.14341
H          8.83096       -2.46254       -6.26844
