25

C          1.51642        0.00804       -0.56735
C          2.96798       -0.00003       -0.06299
C          3.93730        0.83152       -0.88276
Ta         5.85053        1.70488       -0.54322
C          6.51451       -0.26961        0.43548
F          6.20159       -1.34653       -0.44200
F          7.87562       -0.44938        0.65791
F          5.93436       -0.66586        1.62694
C          6.20877        2.84365       -2.73026
C          7.40149        2.15590       -2.48246
O          7.39386        0.98587       -1.95905
O          8.63426        2.75166       -2.59642
H          0.86137       -0.62686        0.05194
H          1.45048       -0.35686       -1.60505
H          1.10162        1.02876       -0.55339
H          3.34790       -1.03438       -0.04518
H          3.01063        0.35315        0.97819
H          3.60174        1.91662       -0.92137
H          3.96172        0.47949       -1.94145
H          6.88688        2.04272        0.83466
H          5.56441        3.41437       -0.05659
H          5.01891        1.71435        1.01677
H          6.19832        3.90470       -2.97525
H          5.36302        2.25221       -3.08671
H          8.49911        3.60903       -3.03310
