47

C          0.77997        4.30525        1.73393
O          2.17799        4.42726        1.58754
C          2.74282        3.31585        0.89708
C          4.25233        3.44047        0.83871
O          4.82036        3.13244        2.09054
C          6.27687        3.17531        2.04644
C          6.90456        2.85203        3.37520
Ga         8.96166        2.90406        3.20783
C          9.60832        1.09305        2.34149
C          9.40878       -0.09809        3.17445
O         10.25709       -0.75333        3.76248
O          8.07729       -0.49034        3.33204
C          9.97213        3.34226        4.90992
C         10.05573        2.27979        6.00894
C         10.93359        2.71107        7.19281
C         11.06292        1.66036        8.29397
N         11.89987        2.16470        9.37902
C         12.17583        1.42404       10.50966
N         11.87884        0.19131       10.75264
N         12.87026        2.16721       11.48682
H          0.42929        5.18997        2.28179
H          0.50488        3.39731        2.30582
H          0.26429        4.26315        0.75258
H          2.33741        3.27352       -0.13615
H          2.47252        2.37167        1.41002
H          4.52354        4.46759        0.51346
H          4.62455        2.74387        0.05470
H          6.58553        4.18271        1.70596
H          6.60392        2.46234        1.25899
H          6.53392        1.88184        3.74922
H          6.60914        3.60447        4.12415
H          9.32031        4.00252        2.07775
H         10.66773        1.21222        2.09078
H          9.00852        1.05214        1.42041
H          7.52557        0.22539        2.96758
H          9.53840        4.27293        5.32109
H         10.99449        3.60908        4.58602
H         10.45517        1.33891        5.59500
H          9.04486        2.03687        6.38194
H         10.51906        3.64055        7.62751
H         11.94114        2.96486        6.82120
H         11.52510        0.74703        7.88546
H         10.05828        1.37787        8.66450
H         11.84696        3.16947        9.52265
H         11.27403       -0.18897       10.01995
H         13.63557        2.71872       11.10402
H         13.19684        1.54304       12.22049
