75

N          3.68464        7.13268        4.03020
C          3.57846        6.09670        2.98056
C          4.24394        4.78863        3.41199
C          4.15665        3.66432        2.37149
Al         5.05979        1.93619        2.91528
C          4.66081        0.54815        1.46345
C          5.14584        0.63647        0.14059
C          4.80552       -0.29623       -0.84666
C          3.95668       -1.37051       -0.55014
C          3.46528       -1.48581        0.74916
C          3.81515       -0.54295        1.73194
C          2.54543       -2.61685        1.11451
F          2.32713       -3.48845        0.08516
F          3.02600       -3.36353        2.15462
F          1.31079       -2.17647        1.51017
C          5.34460       -0.19033       -2.24471
F          6.03588        0.95718       -2.47172
F          6.19612       -1.22219       -2.55489
F          4.35157       -0.23995       -3.19067
C          7.06750        2.20723        3.09748
C          7.74400        1.82205        4.27617
C          9.12063        1.99802        4.44650
C          9.91737        2.57033        3.43291
C          9.25870        2.96283        2.25113
C          7.87801        2.78978        2.09950
Si        11.76625        2.78493        3.68117
C         12.52989        1.15989        4.31475
C         12.30207       -0.07164        3.42553
C         12.90133       -1.36036        4.00100
C         12.66439       -2.60025        3.13388
C         13.27226       -3.87743        3.72194
C         13.04030       -5.12929        2.87134
C         13.65328       -6.39834        3.47234
C         13.42773       -7.64836        2.61895
C         12.60873        3.28595        2.05951
C         12.12100        4.12150        4.97957
H          3.35681        8.03248        3.67406
H          4.67099        7.26499        4.26596
H          4.01724        6.40941        2.01053
H          2.50618        5.91311        2.79659
H          3.79091        4.46725        4.36540
H          5.30551        5.00213        3.64275
H          4.58665        4.01625        1.41340
H          3.09363        3.44857        2.15332
H          4.48124        1.31678        4.32034
H          5.81130        1.45704       -0.13791
H          3.68625       -2.09643       -1.31581
H          3.41407       -0.66550        2.74292
H          7.16930        1.36750        5.09054
H          9.58278        1.67837        5.38811
H          9.83106        3.41037        1.43205
H          7.42282        3.12694        1.16087
H         12.11572        0.96639        5.32053
H         13.61250        1.32307        4.46684
H         12.73029        0.10506        2.42318
H         11.21985       -0.21293        3.26855
H         12.47706       -1.53400        5.00604
H         13.98737       -1.22119        4.15168
H         13.08161       -2.42757        2.12586
H         11.57928       -2.74265        2.99118
H         12.85657       -4.04390        4.73168
H         14.35828       -3.73114        3.86356
H         13.45602       -4.96766        1.86074
H         11.95564       -5.28011        2.73037
H         13.23241       -6.55922        4.47952
H         14.73586       -6.24205        3.61911
H         12.35432       -7.84683        2.48102
H         13.87569       -8.54063        3.07937
H         13.87093       -7.53102        1.61837
H         12.44638        2.53956        1.26916
H         13.69383        3.39378        2.20605
H         12.22547        4.24845        1.69114
H         11.63918        3.87372        5.93637
H         11.72753        5.09541        4.65486
H         13.20085        4.23239        5.16127
