15

N          0.96970       -0.00268       -0.04355
C          2.44999       -0.03078       -0.14057
C          2.93090       -1.24607       -0.92530
C          4.46089       -1.34721       -1.03768
N          4.82340       -2.57750       -1.69629
S          6.41778       -2.98810       -1.43323
H          0.67829        0.66176        0.67684
H          0.65384       -0.92027        0.28072
H          2.94217       -0.03318        0.85270
H          2.76870        0.89557       -0.64857
H          2.48737       -1.24442       -1.93444
H          2.57582       -2.16935       -0.43066
H          4.90272       -1.24649       -0.01045
H          4.82048       -0.42692       -1.58489
H          7.21156       -2.19866       -2.30592
