25

C          1.41524       -1.18111       -0.76677
Ta         3.06006       -0.32463        0.37615
S          4.23993        1.08729        2.01075
O          5.27390        0.91529        3.03880
O          4.71837        1.20744        0.54784
C          3.74512        2.96168        2.29815
C          2.67092        3.15321        3.40170
F          1.50260        2.58628        3.04657
F          3.07374        2.60830        4.56889
F          2.43915        4.47734        3.62289
F          4.86717        3.62960        2.68503
F          3.28510        3.53384        1.15964
C          4.51885       -1.07174       -1.27081
C          4.66114       -2.56221       -1.66907
F          3.47085       -3.12473       -2.00005
F          5.48707       -2.74528       -2.74173
F          5.18105       -3.27983       -0.64241
F          4.04798       -0.42172       -2.44162
F          5.83002       -0.64680       -1.13293
H          0.47398       -0.83567       -0.30649
H          1.38356       -2.28052       -0.80133
H          1.44736       -0.80528       -1.80591
H          2.27354       -1.21489        1.68610
H          4.25367       -1.14555        1.40980
H          2.17899        1.23496        0.54682
