66

C          0.91959        0.10462        0.17843
C          2.44923        0.07840        0.10987
C          3.00776       -1.19480       -0.53551
C          4.53712       -1.22765       -0.62061
C          5.09294       -2.49765       -1.27356
C          6.62102       -2.51658       -1.38192
C          7.17928       -3.77559       -2.05684
C          8.70927       -3.78081       -2.18740
Si         9.44804       -5.33328       -2.99942
C          8.96916       -6.86662       -2.03284
C          9.06032       -6.88176       -0.62597
C          8.76214       -8.02170        0.12055
C          8.36806       -9.21288       -0.51652
C          8.27825       -9.21016       -1.91767
C          8.56635       -8.06232       -2.65723
C          8.03140      -10.49154        0.24822
C          9.03595      -10.75013        1.46907
O          9.02905       -9.94019        2.42422
O          9.72063      -11.80427        1.31476
C          6.56195      -10.48326        0.75252
C          6.12033       -9.31412        1.63635
C          4.70059       -9.56336        2.15842
C          4.03204       -8.42280        2.89608
C          4.72208       -7.91810        4.20453
F          5.88436       -7.29203        3.94494
F          3.91988       -7.04295        4.86162
F          4.96918       -8.95550        5.03850
F          3.88045       -7.31700        2.08804
F          2.75446       -8.80647        3.27447
O          8.15323      -11.61808       -0.61687
C          8.83819       -5.44250       -4.79018
C         11.33159       -5.13266       -3.01611
H          0.54902        1.02706        0.64826
H          0.53253       -0.74438        0.76172
H          0.47474        0.04142       -0.82643
H          2.86502        0.18136        1.12674
H          2.80828        0.95800       -0.45202
H          2.58433       -1.30215       -1.55045
H          2.65463       -2.07449        0.03082
H          4.96087       -1.12481        0.39415
H          4.88910       -0.34461       -1.18413
H          4.65611       -2.60795       -2.28245
H          4.75669       -3.38045       -0.70259
H          7.06118       -2.42356       -0.37321
H          6.95864       -1.62487       -1.94107
H          6.71940       -3.87622       -3.05593
H          6.85820       -4.66546       -1.48987
H          9.16846       -3.66879       -1.18935
H          9.04588       -2.90289       -2.76836
H          9.38135       -5.98247       -0.09038
H          8.86793       -8.02527        1.20667
H          8.00003      -10.13912       -2.41563
H          8.48071       -8.10875       -3.74672
H          6.42313      -11.43255        1.29641
H          5.92013      -10.53901       -0.14527
H          6.14579       -8.37440        1.06458
H          6.84064       -9.21551        2.46103
H          4.68498      -10.43696        2.82811
H          4.01631       -9.79080        1.32357
H          8.89294      -12.09583       -0.12677
H          7.74949       -5.58373       -4.83804
H          9.30852       -6.28247       -5.32088
H          9.08774       -4.52040       -5.33558
H         11.72123       -5.07862       -1.98959
H         11.63808       -4.22003       -3.54931
H         11.80704       -5.99444       -3.50550
