36

C          1.04864        0.12746       -0.91346
C          2.53118        0.19736       -0.53585
C          3.28619        1.36767       -1.17857
C          4.76021        1.44155       -0.75957
C          5.56169        2.61454       -1.35474
C          7.00691        2.68148       -0.84844
In         8.28598        4.35831       -1.60808
C          8.87636        4.01315       -3.73561
C          9.45090        2.79856       -4.15267
C          9.84065        2.56950       -5.47943
C          9.67354        3.55788       -6.45841
C          9.08371        4.76930       -6.06393
C          8.69446        4.98731       -4.73712
C         10.13396        3.33710       -7.88053
Cl         6.75913        6.34849       -1.82408
H          0.54397       -0.72069       -0.42608
H          0.91807        0.01207       -2.00030
H          0.51902        1.04518       -0.61531
H          3.02573       -0.74902       -0.81529
H          2.62448        0.27101        0.56152
H          2.78204        2.31402       -0.91320
H          3.21535        1.28653       -2.27817
H          5.26008        0.49288       -1.02915
H          4.81342        1.50350        0.34292
H          5.04172        3.56075       -1.12535
H          5.54771        2.53317       -2.45637
H          7.53551        1.74533       -1.10534
H          7.01226        2.74519        0.25302
H          9.60038        4.86508       -0.53564
H          9.60061        1.98929       -3.42887
H         10.28092        1.60648       -5.76136
H          8.92574        5.55434       -6.81240
H          8.22435        5.93999       -4.47335
H         10.29624        2.26913       -8.08647
H         11.08492        3.85782       -8.08321
H          9.40067        3.71532       -8.60905
