46

C          1.07679        1.37405       -1.18947
C          2.55006        1.02229       -0.96173
C          3.03911       -0.13872       -1.83393
C          4.51722       -0.49493       -1.63775
C          4.98033       -1.69372       -2.48383
C          6.45239       -2.04301       -2.34757
Sb         7.08733       -3.88476       -3.53077
C          6.77962       -2.54927       -5.54890
F          6.84299       -1.16416       -5.36610
F          7.73688       -2.79382       -6.53154
F          5.56870       -2.74373       -6.20362
C          9.24416       -3.15756       -3.52044
C         10.20570       -4.27780       -3.16917
C         11.69880       -3.93969       -3.31747
C         12.61687       -5.10085       -2.92248
C         14.11365       -4.81254       -3.06783
C         14.99579       -5.99066       -2.64485
H          0.74650        2.20114       -0.54318
H          0.42735        0.50932       -0.98331
H          0.89880        1.67411       -2.23344
H          2.70826        0.76902        0.10084
H          3.17446        1.91136       -1.15590
H          2.86560        0.10778       -2.89656
H          2.41985       -1.03036       -1.62793
H          4.70554       -0.70779       -0.56958
H          5.13881        0.38445       -1.88480
H          4.75429       -1.48100       -3.54344
H          4.36207       -2.57219       -2.22096
H          6.72735       -2.26963       -1.30351
H          7.09290       -1.22475       -2.70921
H          5.37304       -4.37516       -3.69122
H          7.59803       -5.20991       -4.62805
H          7.34334       -4.88719       -2.06267
H          9.30716       -2.31999       -2.80792
H          9.42361       -2.76912       -4.53444
H          9.98473       -5.15634       -3.80597
H         10.02240       -4.60954       -2.13099
H         11.93904       -3.05469       -2.70061
H         11.90256       -3.64414       -4.36224
H         12.35915       -5.98587       -3.53167
H         12.40464       -5.38633       -1.87618
H         14.37337       -3.92324       -2.46790
H         14.33269       -4.54413       -4.11555
H         14.81963       -6.25645       -1.59107
H         16.06690       -5.76686       -2.75897
H         14.77475       -6.88497       -3.24761
