61

N          3.47180        2.56133        3.56030
C          3.10167        3.14151        2.27870
Sb         3.49319        1.71118        0.53743
C          1.17869        1.33468       -0.10061
C          0.00990        1.92139        0.70120
F          0.07155        1.52907        2.00146
F          0.03902        3.28144        0.67854
F         -1.23318        1.55685        0.24619
F          0.97724        1.75285       -1.41671
F          0.96503       -0.04410       -0.10684
C          5.70334        1.84489        0.96580
C          6.40836        3.04595        0.80688
C          7.77235        3.13847        1.10863
C          8.49337        2.02303        1.58148
C          7.77963        0.81747        1.74526
C          6.41495        0.73611        1.44695
Si        10.34761        2.10486        1.87330
C         10.83564        1.07276        3.40030
C         12.34662        0.87251        3.59437
C         12.72138        0.01592        4.81070
C         14.22894       -0.22494        4.93425
C         14.63171       -1.11255        6.11574
C         16.13814       -1.38039        6.18722
C         16.55617       -2.28684        7.34866
C         18.06165       -2.56063        7.38763
C         11.24768        1.41105        0.35370
C         10.90803        3.89595        2.13795
H          4.48205        2.39276        3.56783
H          3.05673        1.62322        3.62906
H          3.70803        4.03476        2.07186
H          2.04090        3.42471        2.27762
H          3.33725        0.39552        1.80390
H          3.75092        0.49681       -0.73035
H          3.58068        3.07193       -0.64425
H          5.88337        3.93287        0.43456
H          8.28190        4.09733        0.96951
H          8.29422       -0.07671        2.11362
H          5.88844       -0.21356        1.59439
H         10.34180        0.08873        3.32346
H         10.39726        1.55347        4.29208
H         12.84812        1.85255        3.68434
H         12.77458        0.40133        2.69264
H         12.20026       -0.95515        4.74142
H         12.34376        0.49723        5.72988
H         14.74875        0.74634        5.01538
H         14.59576       -0.68445        3.99902
H         14.09459       -2.07506        6.04726
H         14.29631       -0.64540        7.05849
H         16.67734       -0.41933        6.26419
H         16.46969       -1.83542        5.23679
H         16.00951       -3.24234        7.27647
H         16.23860       -1.82802        8.30034
H         18.39854       -3.05449        6.46352
H         18.33513       -3.21042        8.23111
H         18.63337       -1.62559        7.48769
H         10.97645        0.35824        0.18813
H         12.34190        1.47271        0.44783
H         10.95124        1.97004       -0.54540
H         10.38583        4.35239        2.99093
H         10.70698        4.51576        1.25272
H         11.98894        3.94437        2.33548
