21

O          6.73573       -0.49071       -0.26897
In         5.80877        1.31846       -0.33851
S          3.68670        0.33145        1.08468
O          2.40727       -0.05418        0.46009
O          4.35544       -0.68551        1.93208
C          3.12872        1.61172        2.48338
C          2.38626        2.91564        2.06365
C          0.98406        2.78003        1.35801
C          0.09812        4.08110        1.43738
F          0.78331        5.16890        1.03206
F         -0.97075        3.92946        0.62300
F         -0.36586        4.30154        2.68293
F          1.16303        2.51675        0.04444
F          0.25331        1.78502        1.92454
F          2.19865        3.68314        3.19392
F          3.20442        3.61366        1.22657
F          2.37450        0.94100        3.39488
F          4.27316        2.03029        3.11108
Cl         5.10938        1.78696       -2.60091
H          6.32757       -0.96597        0.47562
H          6.36960        2.74432        0.47794
