86

C          4.78633        1.16246       -5.82530
S          4.52445        1.30168       -4.03426
C          4.99986        3.06401       -3.82613
C          4.63129        3.60343       -2.44276
B          5.38597        2.89162       -1.15472
C          4.88933        3.51158        0.26769
C          5.05109        2.77358        1.46360
C          4.67379        3.26640        2.71216
C          4.10084        4.55161        2.85339
C          3.92384        5.29636        1.67137
C          4.30319        4.78584        0.42433
Si         3.63663        5.21302        4.53841
C          5.07783        4.90896        5.75700
C          6.43116        5.40919        5.23957
C          7.56542        5.23457        6.22367
F          7.75307        3.93449        6.59041
F          8.75397        5.67249        5.71383
F          7.36404        5.93639        7.38340
C          3.29276        7.07602        4.47204
C          2.11760        4.34564        5.26871
C          7.00139        3.05649       -1.32883
C          7.68390        4.25326       -1.01493
C          9.04850        4.42435       -1.25467
C          9.83019        3.39631       -1.82478
C          9.16515        2.19135       -2.12874
C          7.79707        2.03173       -1.88454
Si        11.64615        3.66913       -2.18708
C         12.53851        4.26565       -0.61099
C         14.04153        4.55129       -0.74397
C         14.69439        5.06142        0.54713
C         16.19753        5.32399        0.41302
C         16.85138        5.85396        1.69294
C         18.35740        6.09812        1.55789
C         19.01301        6.64077        2.83167
C         20.51892        6.87220        2.68526
C         12.46374        2.07091       -2.79834
C         11.85046        4.99363       -3.53345
H          4.50682        0.14237       -6.12114
H          5.84082        1.32780       -6.09160
H          4.15900        1.87577       -6.38192
H          4.48759        3.61301       -4.63601
H          6.08657        3.13874       -3.99613
H          3.53432        3.53989       -2.31982
H          4.87147        4.68511       -2.47022
H          5.12577        1.68196       -1.14166
H          5.48863        1.77263        1.39641
H          4.82846        2.63751        3.59695
H          3.48430        6.29817        1.72071
H          4.13434        5.40558       -0.46121
H          5.13887        3.82787        5.95961
H          4.83213        5.39244        6.71674
H          6.40170        6.48214        4.99592
H          6.71669        4.88101        4.31789
H          4.15547        7.63736        4.08603
H          3.05562        7.46239        5.47434
H          2.43733        7.29799        3.81806
H          2.27794        3.25944        5.32310
H          1.23410        4.51712        4.63745
H          1.88980        4.70832        6.28244
H          7.12251        5.07791       -0.56378
H          9.51464        5.38108       -0.99084
H          9.72451        1.35776       -2.56622
H          7.31386        1.08437       -2.14088
H         12.36816        3.50597        0.17173
H         12.01665        5.17128       -0.25493
H         14.21367        5.29422       -1.54272
H         14.56812        3.63646       -1.06874
H         14.52030        4.32881        1.35476
H         14.18595        5.98806        0.86673
H         16.36970        6.04406       -0.40694
H         16.70340        4.39119        0.10589
H         16.67054        5.14117        2.51678
H         16.35491        6.79359        1.99297
H         18.53985        6.80356        0.72756
H         18.85486        5.15566        1.26702
H         18.82651        5.93895        3.66207
H         18.52021        7.58522        3.11810
H         21.04156        5.93705        2.43327
H         20.96248        7.26241        3.61238
H         20.73342        7.59471        1.88322
H         12.38929        1.27055       -2.04805
H         13.52956        2.23087       -3.01839
H         11.98474        1.70975       -3.71970
H         11.37950        5.93794       -3.22371
H         11.35619        4.66989       -4.46072
H         12.90678        5.19828       -3.76415
