48

C          4.70025       -2.88445        0.07085
C          4.23773       -1.42456        0.06004
C          4.88422       -0.59006       -1.05102
C          4.39905        0.86552       -1.06306
C          5.04300        1.81837       -2.10261
C          4.81701        1.27225       -3.56219
C          3.34919        0.93403       -3.93240
C          2.39819        2.11421       -4.17205
C          5.45080        2.13802       -4.66804
C          4.40898        3.28464       -1.92744
O          3.32202        3.35372       -1.29279
O          5.06980        4.22343       -2.45004
C          6.57132        1.92637       -1.87833
C          6.98515        2.40724       -0.49660
O          8.42392        2.49338       -0.46580
C          8.91617        3.02473        0.74345
C         10.43436        3.04536        0.62715
O         10.98935        3.56394        1.83359
C         12.39830        3.63206        1.77617
H          4.22518       -3.46191        0.87846
H          5.79060       -2.95288        0.20839
H          4.45992       -3.38211       -0.88148
H          4.45818       -0.95959        1.03635
H          3.14042       -1.38497       -0.04967
H          4.67353       -1.07489       -2.02044
H          5.98151       -0.63079       -0.92766
H          4.55130        1.30039       -0.06218
H          3.30833        0.89808       -1.19524
H          5.34872        0.30016       -3.59325
H          2.91621        0.27981       -3.15928
H          3.39221        0.32030       -4.85149
H          2.28092        2.72007       -3.26381
H          1.40643        1.74463       -4.47850
H          2.76683        2.77219       -4.97238
H          5.13134        3.18487       -4.58590
H          5.16980        1.74323       -5.65851
H          6.54773        2.12924       -4.61174
H          6.96449        2.66129       -2.59167
H          7.06414        0.95701       -2.07921
H          6.65861        1.71897        0.30781
H          6.54678        3.40280       -0.30211
H          8.61466        2.40515        1.61405
H          8.53558        4.05077        0.92001
H         10.73086        3.67253       -0.23572
H         10.80756        2.01919        0.44024
H         12.74773        4.03965        2.73421
H         12.74318        4.29235        0.95671
H         12.85057        2.63199        1.62487
