14

Cl         1.28718       -0.72280        0.06372
Ga         3.08295        0.53496       -0.11393
S          4.55141       -0.67992       -1.65393
O          5.73400        0.11051       -1.99227
O          4.73871       -2.10301       -1.39202
F          3.64053       -0.65335       -3.07131
S          4.33870        0.37423        1.93757
O          4.77314        1.74628        2.28096
O          3.60647       -0.39120        2.96427
C          5.86448       -0.56169        1.62656
H          2.88674        1.98316       -0.64570
H          6.45116       -0.04887        0.85579
H          5.60537       -1.57945        1.31339
H          6.39433       -0.56605        2.58847
