31

N          1.16050       -0.68598        0.25869
C          2.47289       -0.03522        0.11715
C          2.98922       -0.10814       -1.33853
S          4.65619        0.78894       -1.29658
O          5.22318        0.64742        0.05168
O          5.49991        0.41383       -2.42617
C          4.23972        2.53254       -1.49731
C          3.25754       -1.51760       -1.84453
C          3.19055       -2.63346       -0.99094
C          3.42299       -3.92485       -1.47013
C          3.73733       -4.15803       -2.81508
C          3.80658       -3.04468       -3.66519
C          3.57670       -1.75183       -3.19642
C          4.01124       -5.55176       -3.32727
C          2.03350        0.73607       -2.35382
O          0.91981        1.06543       -1.87474
O          2.51817        0.98027       -3.48026
H          0.81493       -0.50724        1.20358
H          0.54640       -0.17833       -0.39341
H          3.19796       -0.51812        0.78869
H          2.44824        1.03478        0.39947
H          3.50359        2.81817       -0.73760
H          3.84437        2.67041       -2.50812
H          5.18683        3.06271       -1.33966
H          2.90995       -2.50113        0.05164
H          3.34561       -4.77113       -0.78107
H          4.04353       -3.19199       -4.72311
H          3.61883       -0.89688       -3.86942
H          3.48362       -6.31007       -2.73099
H          5.08649       -5.79353       -3.28457
H          3.69698       -5.66295       -4.37517
