29

N          4.96873       -1.01692        3.92251
C          3.98806       -1.30874        2.84648
C          3.45191       -0.07099        2.10915
B          4.57804        0.83595        1.29236
C          5.41128       -0.04331        0.17567
C          4.57918       -0.69355       -0.94230
C          3.93372        0.37674       -1.83732
C          3.04405       -0.17139       -2.92221
C          2.41046        0.90506       -3.85672
F          1.64661        1.77315       -3.15604
F          3.37023        1.61833       -4.49704
F          1.62366        0.34001       -4.80601
F          3.72353       -1.03429       -3.76952
F          1.98273       -0.89005       -2.41005
O          5.63593        1.41473        2.22546
H          4.46005       -0.53363        4.66955
H          5.58152       -0.28238        3.53905
H          3.17773       -1.91588        3.29528
H          4.49266       -1.97674        2.12522
H          2.92718        0.57039        2.84923
H          2.65585       -0.39666        1.40728
H          3.95459        1.77544        0.72851
H          5.97812       -0.84679        0.68424
H          6.18328        0.60396       -0.28447
H          3.78150       -1.31435       -0.50259
H          5.18641       -1.36449       -1.57525
H          4.71659        0.98118       -2.32302
H          3.34781        1.06601       -1.20997
H          5.21259        2.10208        2.75662
