70

O          0.91397       -0.41229        0.07125
C          2.08372        0.00282        0.07698
O          2.58956        1.11916       -0.15428
C          3.22220       -1.18078        0.46422
C          2.99988       -1.50059        1.92025
C          3.82665       -1.01989        2.95038
C          3.53427       -1.27097        4.29160
C          2.40990       -2.02426        4.67579
C          1.58177       -2.50032        3.63744
C          1.86056       -2.24186        2.30016
Si         1.96416       -2.33257        6.46832
C          3.49790       -2.12347        7.58038
C          4.63051       -3.11402        7.28322
C          5.85320       -2.92652        8.15523
F          6.41300       -1.69137        8.01788
F          5.57630       -3.08110        9.48582
F          6.82989       -3.83372        7.85715
C          0.65989       -1.10090        7.06232
C          1.28979       -4.08786        6.68967
C          3.02955       -2.37640       -0.45721
C          2.57115       -2.19637       -1.77274
C          2.45659       -3.26897       -2.65236
C          2.79441       -4.56204       -2.23123
C          3.26241       -4.75981       -0.92439
C          3.38065       -3.67685       -0.05804
C          2.65232       -5.73259       -3.15767
C          1.38998       -6.65931       -2.95485
C         -0.06320       -6.05044       -3.05215
C         -0.62231       -5.41818       -4.38983
C         -0.70555       -6.25115       -5.73301
C         -1.53554       -7.58788       -5.75828
F         -2.77411       -7.40390       -5.26584
F         -1.64534       -7.98866       -7.04439
F         -0.93067       -8.56597       -5.06805
F         -1.30328       -5.41814       -6.63334
F          0.54163       -6.53062       -6.17856
F         -1.89375       -5.02342       -4.09738
F          0.09971       -4.30989       -4.68749
F         -0.92356       -7.06304       -2.72242
F         -0.18085       -5.08080       -2.11409
F          1.46110       -7.69848       -3.83797
F          1.46165       -7.18624       -1.69782
F          2.64260       -5.34650       -4.47845
F          3.71541       -6.60536       -3.01236
C          4.57141       -0.54372        0.15982
O          5.64883       -1.53020        0.44994
C          6.89564       -1.10442        0.31112
F          7.19559       -0.64573       -0.94803
F          7.23235       -0.07635        1.16185
F          7.74257       -2.12923        0.57563
H          4.71891       -0.44059        2.71510
H          4.21084       -0.86298        5.04791
H          0.68533       -3.08040        3.87471
H          1.17813       -2.58743        1.52433
H          3.16914       -2.22769        8.62686
H          3.86387       -1.08981        7.47505
H          4.97149       -3.03184        6.24044
H          4.30390       -4.15421        7.43109
H          1.02965       -0.07001        6.97261
H          0.37947       -1.27928        8.11090
H         -0.24596       -1.18202        6.44516
H          2.00699       -4.84104        6.33475
H          0.36027       -4.22650        6.12006
H          1.06740       -4.29278        7.74724
H          2.28230       -1.19952       -2.10553
H          2.09805       -3.10107       -3.66632
H          3.55148       -5.75655       -0.59149
H          3.75905       -3.83987        0.95091
H          4.73497        0.35489        0.76290
H          4.63917       -0.27644       -0.89969
