35

O          2.68083       -1.61391       -0.74970
C          3.72465       -0.92936       -0.75045
O          4.92401       -1.18781       -0.96661
C          3.43670        0.63927       -0.45967
C          2.99780        1.33863       -1.70773
C          1.65491        1.26481       -2.11693
C          1.24915        1.85310       -3.31018
C          2.18406        2.51972       -4.12215
C          3.53062        2.57140       -3.73013
C          3.93248        1.97959       -2.53514
C          1.73753        3.15818       -5.40264
C          0.90873        4.49723       -5.29430
C          1.52071        5.74728       -4.55416
C          2.80940        6.48778       -5.10409
C          2.78419        7.05427       -6.57279
C          3.90415        8.12430       -6.86978
F          5.11862        7.67767       -6.50166
F          3.92205        8.36463       -8.19834
F          3.65605        9.28653       -6.23986
F          2.96383        6.03909       -7.45008
F          1.59297        7.65734       -6.82651
F          2.99220        7.55210       -4.26459
F          3.88093        5.66958       -4.98121
F          0.52816        6.68480       -4.50501
F          1.82348        5.39265       -3.28070
F          0.55911        4.91043       -6.55128
F         -0.24417        4.21877       -4.61995
F          2.79647        3.43258       -6.23898
F          0.88945        2.31807       -6.10524
F          2.45577        0.77168        0.52022
F          4.55933        1.26821        0.06183
H          0.94449        0.72628       -1.49128
H          0.20695        1.78517       -3.62237
H          4.26440        3.06757       -4.36406
H          4.97834        2.00415       -2.23165
