37

C          3.27681        1.39138        1.90551
C          2.65469        0.00420        2.09579
C          3.24458       -1.08982        1.19009
C          4.71238       -1.42968        1.47226
Ta         5.47998       -2.91935        2.80170
S          4.05889       -3.82213        4.61010
O          3.34813       -2.67488        3.89604
O          3.30557       -5.06821        4.80397
C          4.01550       -3.20576        6.47301
C          4.54451       -1.81048        6.96085
C          3.91055       -0.51358        6.33275
C          4.06008        0.77562        7.22751
F          5.33308        0.94985        7.63302
F          3.69761        1.85479        6.49798
F          3.26185        0.72902        8.31214
F          4.51899       -0.23738        5.15552
F          2.57906       -0.68057        6.12328
F          4.29484       -1.75502        8.31870
F          5.88657       -1.74920        6.79721
F          2.72007       -3.30869        6.87899
F          4.74859       -4.12523        7.17484
C          7.58434       -2.23830        2.29447
F          7.82984       -0.92978        2.74763
F          8.59916       -2.98919        2.85907
F          7.92288       -2.15707        0.94342
H          2.78496        2.13722        2.54753
H          3.18082        1.73327        0.86234
H          4.34638        1.40037        2.15908
H          1.57217        0.06964        1.89377
H          2.75263       -0.30988        3.14386
H          3.12941       -0.76349        0.13784
H          2.62894       -1.99678        1.29734
H          5.34215       -0.52513        1.55013
H          5.14738       -2.00610        0.61263
H          4.65264       -4.45892        2.49822
H          6.26925       -2.46029        4.32186
H          6.32521       -4.04854        1.74140
