26

N          1.18784        0.38703        0.03467
C          2.64017        0.20860        0.31099
C          3.33574        1.52252        0.57598
Sb         5.56550        1.32317        0.87241
C          5.86443        1.50932       -1.34946
C          7.30873        1.36262       -1.85579
C          8.05578        2.69160       -1.81242
O          8.27504        3.37191       -2.81996
N          8.44927        3.08359       -0.56534
S          5.22741        0.85020        3.46440
H          0.79026       -0.49583       -0.29998
H          1.08579        1.04893       -0.73909
H          3.15751       -0.32164       -0.51503
H          2.72999       -0.43701        1.19985
H          2.95638        2.01304        1.48203
H          3.24056        2.21353       -0.28013
H          5.51417       -0.46525        0.74070
H          5.61989        3.08900        1.21211
H          7.36195        1.24865        1.13092
H          5.42449        2.46348       -1.67781
H          5.24119        0.69646       -1.75313
H          7.34433        1.02623       -2.90258
H          7.84509        0.61584       -1.24140
H          8.12844        2.55262        0.25325
H          8.75437        4.04329       -0.45106
H          5.02848        2.15609        3.75996
