31

C          0.97409        0.12371       -0.22297
C          2.48814        0.21881       -0.01562
C          2.98529       -0.57933        1.19382
C          4.49823       -0.48794        1.41358
C          4.98310       -1.27939        2.63227
C          6.50541       -1.16029        2.82695
C          6.97223       -1.79675        4.13028
C          6.45666       -1.01956        5.44617
O          6.20693        0.19402        5.25973
O          6.35782       -1.73811        6.46736
C          6.71907       -3.29922        4.25377
C          7.08520       -4.21570        3.09588
O          6.31028       -5.01280        2.59843
O          8.36260       -4.15044        2.63509
Br         9.02562       -1.49990        4.18957
H          0.64320        0.70686       -1.09507
H          0.43031        0.50066        0.65666
H          0.66041       -0.91962       -0.37990
H          2.77825        1.27656        0.10526
H          3.00759       -0.13582       -0.92255
H          2.69628       -1.63874        1.07375
H          2.46564       -0.22453        2.10131
H          4.78545        0.57105        1.53595
H          5.01955       -0.84615        0.50737
H          4.69333       -2.33688        2.51606
H          4.48542       -0.89554        3.53655
H          6.76802       -0.09467        2.87874
H          7.02534       -1.60854        1.96308
H          5.64037       -3.42477        4.42124
H          7.19875       -3.64450        5.18213
H          8.82888       -3.40613        3.10047
