48

N          0.91317       -3.89005       -1.03928
C          2.24237       -3.49447       -0.74751
N          2.76943       -3.37468        0.42299
N          2.97218       -3.25923       -1.89467
C          4.41081       -2.99549       -1.83456
C          4.91949       -2.58767       -3.21777
C          6.41719       -2.23139       -3.25771
C          7.35843       -3.42288       -3.03573
Ga         9.30726       -2.99467       -3.05562
S          9.53821       -1.83697       -0.89821
O          8.47118       -0.81422       -0.94015
O          9.65714       -2.66184        0.30978
C         11.11266       -0.65228       -0.84553
C         12.47900       -1.36084       -0.65576
C         13.75836       -0.46301       -0.80585
F         13.88289        0.02653       -2.05516
F         13.72547        0.57557        0.05803
F         14.86229       -1.19626       -0.53457
F         12.53530       -1.90517        0.58819
F         12.58075       -2.35030       -1.58502
F         11.13107        0.04672       -2.02066
F         10.91096        0.22481        0.17216
S         10.30969       -5.20211       -2.49384
O         11.76491       -5.21885       -2.28330
O          9.44743       -5.94279       -1.56251
C         10.07562       -6.17784       -4.19990
C         10.99725       -7.41666       -4.38157
C         10.61119       -8.39734       -5.54776
F          9.46028       -9.04853       -5.29383
F         10.47986       -7.73340       -6.71652
F         11.58607       -9.32517       -5.70244
F         12.26602       -6.99877       -4.63164
F         10.98703       -8.15505       -3.23785
F          8.77113       -6.57210       -4.30152
F         10.31674       -5.28674       -5.21184
H          0.31803       -3.87577       -0.21619
H          0.49053       -3.35756       -1.79795
H          2.06096       -3.47507        1.15527
H          2.67405       -3.80343       -2.69981
H          4.95454       -3.87544       -1.45191
H          4.57293       -2.18921       -1.10581
H          4.33007       -1.71970       -3.55926
H          4.72112       -3.40641       -3.93546
H          6.61968       -1.45313       -2.50566
H          6.62806       -1.77140       -4.23717
H          7.19765       -4.19567       -3.80623
H          7.17688       -3.91100       -2.06721
H         10.21070       -2.26069       -4.09357
