37

C          1.72641       -1.10614       -1.28088
C          3.07123       -0.92484       -0.56951
C          2.95298       -0.42979        0.86625
As         2.55460       -2.06114        2.16524
C          2.50261       -3.70522        3.45743
C          2.81696       -4.98589        2.70781
C          3.12834       -6.17032        3.64354
C          3.43629       -7.46899        2.92732
C          3.71690       -8.68297        3.86607
F          4.78584       -8.44315        4.66390
F          2.65108       -8.93257        4.66666
F          3.97420       -9.81156        3.16425
F          2.39168       -7.86402        2.11581
F          4.54684       -7.35715        2.11902
C          0.50165       -1.70824        2.37371
C          4.22306        0.24413        1.35400
H          1.85705       -1.47876       -2.30955
H          1.17884       -0.15087       -1.33444
H          1.09864       -1.82674       -0.73900
H          3.70537       -0.23722       -1.16594
H          3.60813       -1.89591       -0.55932
H          2.08730        0.24416        0.98296
H          4.16553       -2.42778        2.00904
H          2.23983       -3.04755        0.89337
H          2.85785       -1.08793        3.44584
H          1.53021       -3.75043        3.97380
H          3.28951       -3.45837        4.18784
H          3.68582       -4.80325        2.04946
H          1.97728       -5.25571        2.04981
H          2.27771       -6.36011        4.31640
H          3.99543       -5.93183        4.27936
H          0.17214       -0.91184        1.69030
H          0.29353       -1.41010        3.41253
H         -0.03330       -2.63904        2.13090
H          5.07646       -0.45208        1.28049
H          4.13718        0.54145        2.41120
H          4.47580        1.14480        0.76343
