63

C          8.78723        5.99474        0.61811
C          8.35739        4.53203        0.48323
C          8.82204        3.88580       -0.82543
C          8.42077        2.41476       -0.96872
C          8.88501        1.78080       -2.28347
C          8.52056        0.29982       -2.42485
C          8.98962       -0.31791       -3.74847
C          8.65997       -1.81157       -3.89509
Si         9.21070       -2.61467       -5.53168
C          8.72817       -4.43516       -5.54584
C          7.39903       -4.83311       -5.29303
C          7.01689       -6.17601       -5.34100
C          7.94510       -7.19301       -5.64947
C          9.27424       -6.79238       -5.89201
C          9.65860       -5.44883       -5.84187
Al         7.48972       -9.11615       -5.74308
S          6.71926       -9.80668       -7.96794
O          7.91956       -9.88290       -8.82227
O          5.82545      -10.98177       -7.92651
C          5.68819       -8.44629       -8.94097
C          4.18113       -8.34425       -8.59981
F          4.00932       -8.20679       -7.27304
F          3.62072       -7.25775       -9.20826
F          3.50699       -9.43207       -9.02027
F          6.26277       -7.23602       -8.68379
F          5.80734       -8.70893      -10.26951
S          5.74078       -9.61219       -4.21667
O          6.40508       -9.71523       -2.89208
O          4.58028       -8.69502       -4.31726
C          5.08955      -11.27196       -4.56988
C          8.36486       -1.72674       -6.97603
C         11.08597       -2.43162       -5.72298
H          8.43558        6.43687        1.56116
H          8.38654        6.60417       -0.20603
H          9.88349        6.08934        0.59390
H          7.25850        4.46178        0.55165
H          8.75094        3.95109        1.33451
H          9.92095        3.97117       -0.90070
H          8.41660        4.46030       -1.67740
H          7.32301        2.32549       -0.88800
H          8.83369        1.84040       -0.12071
H          9.98033        1.89372       -2.37255
H          8.45453        2.34471       -3.13014
H          7.42682        0.17818       -2.33529
H          8.95775       -0.26782       -1.58479
H         10.07949       -0.16605       -3.84001
H          8.53802        0.24926       -4.58118
H          7.57214       -1.96667       -3.78817
H          9.11997       -2.38135       -3.06915
H          6.63967       -4.08121       -5.05433
H          5.97723       -6.43946       -5.12816
H         10.03348       -7.54445       -6.12823
H         10.70321       -5.19118       -6.03909
H          8.62804      -10.23324       -5.62398
H          5.90503      -11.99700       -4.46243
H          4.68508      -11.28777       -5.58851
H          4.30680      -11.44759       -3.81980
H          7.27159       -1.82402       -6.91048
H          8.67677       -2.17067       -7.93210
H          8.61073       -0.65481       -7.00255
H         11.62596       -2.92411       -4.90157
H         11.37703       -1.37110       -5.72966
H         11.43405       -2.87497       -6.66675
