34

C          0.74456        0.10279        0.08641
O          2.14785       -0.03328        0.10044
C          2.77743        0.98894        0.87482
C          4.28555        0.78291        0.85212
O          4.85787        1.84408        1.57122
C          6.31931        1.79167        1.58147
C          6.92711        2.96293        2.30386
B          8.58067        2.92861        2.26250
C          9.22207        4.23027        3.04235
C         10.75704        4.26094        3.17102
C         11.44142        4.38751        1.80224
C         11.25333        5.36644        4.11840
H          0.34127       -0.70239       -0.54263
H          0.42944        1.07872       -0.33440
H          0.31166        0.01419        1.10330
H          2.40923        0.96133        1.91932
H          2.53653        1.98798        0.46172
H          4.64120        0.76124       -0.20073
H          4.53895       -0.20366        1.29805
H          6.66391        1.76334        0.52821
H          6.62326        0.83567        2.05361
H          6.55965        2.96670        3.34847
H          6.55269        3.89416        1.83537
H          8.94219        2.89893        1.06860
H          8.99386        1.88296        2.80911
H          8.80231        4.28259        4.06906
H          8.90390        5.17830        2.55434
H         11.06483        3.28850        3.60207
H         11.16669        5.34307        1.32207
H         11.11027        3.58042        1.13601
H         12.54157        4.35871        1.88622
H         10.96820        6.36260        3.73763
H         12.35191        5.35703        4.23662
H         10.80407        5.25848        5.11833
