51

N          1.26807       -0.27711        0.99314
B          2.79811       -0.45637        1.13163
C          3.49589       -1.51888        0.09356
C          4.62898       -2.26761        0.46513
C          5.23305       -3.19254       -0.39582
C          4.72466       -3.40961       -1.67980
C          3.60111       -2.67816       -2.07319
C          3.00406       -1.75746       -1.20175
C          2.99088       -2.92972       -3.42138
F          3.86269       -3.50100       -4.30654
F          1.91384       -3.78114       -3.35683
F          2.52831       -1.79158       -4.01516
C          6.46383       -3.93048        0.04578
F          7.60530       -3.18402       -0.11208
F          6.42652       -4.28216        1.36278
F          6.67513       -5.08557       -0.65675
C          3.53201        1.00082        1.05495
C          4.81023        1.23320        0.50586
C          5.40763        2.49518        0.51550
C          4.75598        3.61359        1.07468
C          3.47507        3.39467        1.62118
C          2.88688        2.12968        1.60465
Si         5.61870        5.26719        1.11661
C          7.26282        5.07336        2.06828
C          7.08148        4.41659        3.44116
C          8.36525        4.24629        4.22202
F          9.28679        3.48410        3.56763
F          8.97729        5.44170        4.49508
F          8.14801        3.64492        5.42984
C          6.05311        5.88221       -0.61945
C          4.57489        6.58170        1.99345
H          0.75722       -1.15346        1.10164
H          0.97191        0.12385        0.10020
H          3.03424       -0.90961        2.26633
H          5.03575       -2.12751        1.46994
H          5.18640       -4.13098       -2.35084
H          2.11642       -1.21280       -1.53487
H          5.35701        0.40188        0.05207
H          6.40381        2.60891        0.07271
H          2.92453        4.22776        2.06974
H          1.88949        1.98547        2.02799
H          7.73965        6.06158        2.16997
H          7.93860        4.45940        1.45199
H          6.63338        3.41686        3.33707
H          6.40733        5.00122        4.08576
H          6.64776        5.13115       -1.15881
H          6.63094        6.81796       -0.58611
H          5.13854        6.06210       -1.20200
H          4.32946        6.28737        3.02378
H          3.62732        6.75132        1.46313
H          5.11669        7.53795        2.03338
