37

C          0.58656        4.55299       -1.03030
C          2.11412        4.60661       -0.93833
C          2.80573        3.37138       -1.52397
C          4.33499        3.41159       -1.43176
C          4.99854        2.15218       -2.00408
C          6.54567        2.13132       -2.06855
C          7.18554        2.44236       -0.66903
C          6.72801        1.46408        0.43398
C          7.07605        1.91164        1.85846
C          8.72255        2.51504       -0.72664
C          7.01979        0.66279       -2.52475
O          6.27576       -0.28993       -2.16462
O          8.10840        0.60964       -3.15978
C          7.02621        3.17164       -3.09437
H          0.11695        5.45304       -0.60549
H          0.18839        3.68098       -0.48894
H          0.25595        4.46592       -2.07691
H          2.41517        4.72267        0.11717
H          2.48309        5.50820       -1.45727
H          2.50737        3.25506       -2.58173
H          2.43461        2.46778       -1.00768
H          4.61777        3.54411       -0.37271
H          4.69988        4.31264       -1.95766
H          4.63354        2.00359       -3.03632
H          4.66240        1.25905       -1.45740
H          6.82778        3.45148       -0.37496
H          7.15289        0.46965        0.22741
H          5.63865        1.32693        0.37042
H          8.16139        1.96703        2.02802
H          6.66674        1.21146        2.60323
H          6.65856        2.90853        2.07793
H          9.13511        1.57963       -1.13052
H          9.14807        2.69863        0.27154
H          9.06353        3.33006       -1.37913
H          6.92583        4.20718       -2.71981
H          6.43752        3.08954       -4.02180
H          8.07178        2.97985       -3.36181
