33

N          1.86956       -0.36915        0.25960
Ta         3.73705        0.22784       -0.14219
C          4.23015        1.84972       -1.71428
C          5.36207        2.91246       -1.52015
C          6.78770        2.31660       -1.30392
F          7.19449        1.56156       -2.34039
F          7.69686        3.31850       -1.14694
F          6.83303        1.55939       -0.18262
F          5.46979        3.76044       -2.60834
F          5.11430        3.71255       -0.43906
F          4.43166        1.43720       -3.03797
F          3.05563        2.64550       -1.77469
C          4.77204       -1.21364        1.17197
C          6.28736       -1.21783        1.37338
C          6.72826       -2.25776        2.42487
C          8.17881       -2.23910        2.86072
C          9.25212       -2.57038        1.77578
F          9.31241       -1.61905        0.82505
F         10.48346       -2.67811        2.33064
F          8.96577       -3.75291        1.17606
F          8.53127       -1.01924        3.39311
F          8.37562       -3.17430        3.86800
H          1.13117       -0.67519       -0.36306
H          1.53579       -0.35497        1.22683
H          4.91381       -0.52725       -1.25130
H          3.93446        1.79996        0.73162
H          3.03852       -0.10808       -1.72553
H          4.42471       -2.21946        0.86894
H          4.27037       -1.01086        2.14967
H          6.63928       -0.22514        1.69284
H          6.77513       -1.42237        0.40977
H          6.50038       -3.27610        2.07541
H          6.15696       -2.10701        3.35510
