39

O          1.18486        1.44977       -0.50366
C          2.00282        0.53346       -0.29100
O          2.11657       -0.62447       -0.74549
C          3.04983        0.84828        0.88542
S          3.37315        2.70637        0.96591
O          4.40561        2.93261        1.97849
O          3.55104        3.27922       -0.35174
C          1.78273        3.56171        1.74739
C          1.22147        4.73832        0.88074
F          2.17193        5.68431        0.71474
F          0.76617        4.35111       -0.30620
F          0.18865        5.31348        1.56416
F          0.79060        2.69488        2.02085
F          2.20036        4.10786        2.92301
C          2.51560        0.32540        2.21918
C          3.19667        0.55167        3.42661
C          2.71216        0.02155        4.62599
C          1.55042       -0.75094        4.64715
C          0.87834       -0.98604        3.44572
C          1.34826       -0.45605        2.24137
C         -0.39343       -1.79615        3.47743
F         -0.29353       -2.86321        4.32860
F         -1.45361       -1.05619        3.92616
F         -0.74030       -2.28612        2.26584
C          3.43865        0.25730        5.92484
F          4.53698        1.03785        5.78689
F          2.63731        0.85659        6.85642
F          3.85651       -0.91786        6.49177
C          4.41104        0.18340        0.66199
O          4.97993        0.64924       -0.59157
C          6.15373        0.11351       -0.93265
F          7.16402        0.39897       -0.04440
F          6.13079       -1.25182       -1.03038
F          6.51915        0.60624       -2.13156
H          4.09401        1.16806        3.43524
H          1.17931       -1.17085        5.58207
H          0.82364       -0.66109        1.30865
H          4.20473       -0.89327        0.58178
H          5.12114        0.40061        1.47338
