37

C          0.63736       -0.13527       -0.21966
C          2.15675        0.01097       -0.09994
C          2.93179       -0.87544       -1.07991
C          4.45261       -0.73447       -0.95752
C          5.18792       -1.62357       -1.96752
C          6.71353       -1.82289       -1.77820
S          7.58626       -0.30655       -2.33716
O          9.01521       -0.34653       -2.13931
O          7.07436        0.12115       -3.62970
F          7.03865        0.82708       -1.31014
C          6.99345       -2.21791       -0.23296
O          6.44121       -3.30980        0.04752
O          7.65099       -1.41983        0.46018
C          7.14969       -2.95243       -2.75236
C          8.63595       -3.31723       -2.95630
C          9.36596       -3.69018       -1.65996
C          8.71025       -4.47077       -3.96903
H          0.10645        0.50904        0.49681
H          0.32351       -1.17342       -0.03071
H          0.29099        0.13289       -1.22989
H          2.47173       -0.23114        0.92875
H          2.44058        1.06457       -0.26255
H          2.61637       -0.63373       -2.11185
H          2.64966       -1.93075       -0.91427
H          4.76500       -1.01243        0.06124
H          4.73149        0.32053       -1.09525
H          4.98636       -1.28149       -2.99632
H          4.78419       -2.64400       -1.87385
H          6.70535       -2.75012       -3.74293
H          6.63531       -3.83259       -2.33104
H          9.15617       -2.45315       -3.39947
H          8.85313       -4.51575       -1.14365
H          9.41234       -2.84434       -0.96342
H         10.39712       -4.00664       -1.88392
H          8.20885       -5.37032       -3.57579
H          9.75645       -4.73865       -4.18223
H          8.22652       -4.20639       -4.92209
