7

S          0.96343       -0.20743       -0.14748
N          2.01398        1.15013       -0.13772
S          2.88691        1.33144        1.17206
O          3.58161        2.60688        1.10059
O          2.34000        0.91832        2.45855
F          4.15440        0.22067        0.98385
H          1.78236       -1.16711       -0.68165
