13

C          1.04563        0.40273       -0.10219
P          2.83222       -0.20109        0.07654
S          3.39337        0.25820       -2.28475
O          2.28756        0.61539       -3.18313
O          4.63810        1.01369       -2.44985
F          3.82600       -1.29998       -2.83361
F          2.67026       -0.52911        1.70341
H          0.82337        0.64351       -1.15100
H          0.90837        1.30094        0.51970
H          0.37554       -0.40288        0.23597
H          4.22776       -0.63255        0.04616
H          2.42476       -1.53581       -0.38361
H          3.29425        1.18574        0.25257
