39

Cl         4.22019       -0.78290       -1.79000
Al         2.80977        0.16301       -0.33514
C          3.97814        1.07961        1.05618
C          5.21521        1.69254        0.75956
C          5.98916        2.33680        1.72628
C          5.54348        2.38423        3.05807
C          4.32420        1.77820        3.39612
C          3.57058        1.14368        2.40550
C          6.37930        3.06086        4.10147
C          6.36236        4.63846        4.13590
C          5.01032        5.41014        4.38416
C          4.23617        5.30694        5.76445
C          4.99506        5.70113        7.08680
C          4.04847        5.97867        8.31734
F          3.19129        4.96075        8.51544
F          4.81481        6.11185        9.42163
F          3.34782        7.11551        8.15911
F          5.82530        4.69508        7.44903
F          5.72251        6.83301        6.89507
F          3.17602        6.16289        5.63946
F          3.74520        4.05465        5.91321
F          5.28926        6.73594        4.20085
F          4.11376        5.03757        3.43864
F          7.24646        5.07690        5.08592
F          6.80805        5.08439        2.92667
F          6.05283        2.64994        5.37690
F          7.72225        2.76570        3.92902
C          1.65676        1.47119       -1.34254
C          2.39738        2.49248       -2.22062
H          1.93349       -0.98227        0.42859
H          5.59866        1.64569       -0.26397
H          6.94640        2.78692        1.45718
H          3.97834        1.79032        4.43074
H          2.63319        0.66146        2.70225
H          1.01232        1.99810       -0.61399
H          0.96372        0.87830       -1.96751
H          3.05482        3.13936       -1.61694
H          1.72306        3.16194       -2.78680
H          3.04390        1.98544       -2.95397
