26

C          3.43771        1.80658        2.48909
C          2.70684        1.05858        1.37240
C          2.96871        1.63234       -0.03066
Al         4.76519        1.59025       -0.87117
S          6.18894       -0.22543       -0.04275
O          7.59511       -0.19643       -0.46789
O          5.88677       -0.54344        1.36382
C          5.40514       -1.79547       -0.95811
C          6.09703       -2.26775       -2.25979
F          7.32219       -2.76207       -2.00345
F          5.37221       -3.26096       -2.85738
F          6.20391       -1.25823       -3.14336
F          5.37031       -2.84137       -0.09529
F          4.11119       -1.44964       -1.26889
S          6.02779        3.57693       -0.36005
O          7.35399        3.72716       -0.94135
O          5.09345        4.69771       -0.47804
F          6.32784        3.49010        1.29303
H          3.17282        1.40346        3.47814
H          3.18636        2.87829        2.47992
H          4.52727        1.72126        2.37845
H          1.62084        1.07877        1.57949
H          3.00247       -0.00188        1.40273
H          2.65812        2.69305       -0.06432
H          2.32802        1.11542       -0.76864
H          4.92183        1.53625       -2.46158
