32

O          2.30144        0.33046       -1.21240
N          2.50045       -0.20942        0.14796
C          3.13575        0.68964        0.88907
C          3.42119        0.33328        2.26311
C          4.08197        1.19055        3.11351
C          4.53214        2.49056        2.71349
C          4.24698        2.83927        1.36402
C          3.58437        2.00346        0.48163
Si         5.48435        3.56468        3.85719
C          7.18885        2.78130        4.29565
C          7.96128        2.34231        3.04833
C          9.28912        1.68432        3.33204
F          9.17736        0.55810        4.09519
F          9.93195        1.30698        2.18183
F         10.16137        2.51022        3.99526
C          5.83895        5.27429        3.10233
C          4.64468        3.83150        5.54558
H          1.85979       -0.43217       -1.61108
H          3.09358       -0.65054        2.60862
H          4.26334        0.85045        4.14076
H          4.56149        3.82179        0.99226
H          3.39054        2.32465       -0.54065
H          6.99921        1.90428        4.93558
H          7.78763        3.48819        4.89380
H          8.17926        3.19611        2.38789
H          7.36161        1.63201        2.45859
H          6.40667        5.19972        2.16340
H          6.42061        5.89628        3.79960
H          4.90194        5.80331        2.87700
H          4.38618        2.86547        6.00425
H          3.70960        4.39785        5.42665
H          5.29290        4.37747        6.24923
