38

C          0.40441       -1.66570       -0.10579
C          1.88487       -1.84791       -0.45233
C          2.76259       -2.15279        0.76615
C          4.25709       -2.30295        0.44608
C          5.13695       -2.62247        1.66351
Al         7.09480       -2.88931        1.31210
S          7.93121       -0.62429        0.69178
O          6.95692        0.45247        0.98678
O          9.33809       -0.38729        1.08701
C          8.04764       -0.52647       -1.24438
F          6.86303       -0.84608       -1.83118
F          8.37177        0.73125       -1.63675
F          8.98877       -1.36557       -1.74324
C          8.24284       -3.39320        2.88299
C          7.79458       -2.97393        4.29581
C          8.65026       -3.63549        5.38978
C          7.80946       -1.44869        4.46284
H         -0.20515       -1.45859       -0.99847
H          0.26354       -0.82880        0.59552
H         -0.00457       -2.56766        0.37580
H          2.26172       -0.93846       -0.95009
H          1.99367       -2.66182       -1.18996
H          2.40093       -3.07724        1.25368
H          2.63791       -1.34905        1.51422
H          4.60966       -1.37112       -0.02793
H          4.37841       -3.09008       -0.32041
H          4.76579       -3.54692        2.15037
H          5.01454       -1.82632        2.42014
H          7.45209       -3.69941       -0.04968
H          9.26728       -3.01856        2.70086
H          8.32714       -4.49681        2.84256
H          6.75267       -3.31489        4.44678
H          9.70327       -3.32427        5.29181
H          8.62096       -4.73267        5.30502
H          8.31037       -3.36155        6.40307
H          8.82057       -1.05019        4.28498
H          7.49799       -1.15035        5.47689
H          7.13972       -0.95342        3.74546
