50

C          7.01641       -3.71778       -2.76099
C          6.19875       -2.94683       -1.71664
C          5.29312       -1.85178       -2.29314
B          4.37614       -1.05131       -1.17860
C          5.29702       -0.21295       -0.13351
C          6.30967        0.68354       -0.55268
C          7.08352        1.42566        0.33687
C          6.87379        1.30181        1.72283
C          5.87932        0.42273        2.18113
C          5.12336       -0.30912        1.26527
C          7.70945        2.08492        2.68136
C          7.42568        3.63186        2.80692
C          5.99235        4.13905        3.22241
C          5.38977        3.83110        4.65582
C          6.19531        4.29022        5.92922
C          5.33017        4.35474        7.24641
F          4.63669        3.21705        7.43585
F          6.16240        4.52595        8.29703
F          4.47169        5.39029        7.22461
F          7.20649        3.42112        6.16313
F          6.71089        5.53425        5.74411
F          4.18892        4.48789        4.68455
F          5.14235        2.50569        4.76547
F          6.01989        5.50197        3.10431
F          5.08315        3.66336        2.33853
F          8.31094        4.18523        3.69614
F          7.66269        4.20225        1.59075
F          7.63573        1.58682        3.96657
F          9.05334        2.04552        2.32723
C          3.30689       -0.00577       -1.89862
C          2.20402       -0.69889       -2.68776
N          1.25488        0.26806       -3.30531
H          7.64802       -4.50041       -2.30760
H          7.67830       -3.03883       -3.32266
H          6.35549       -4.20556       -3.49603
H          6.88844       -2.50180       -0.97783
H          5.57512       -3.65689       -1.14517
H          4.63054       -2.31954       -3.04761
H          5.92350       -1.14172       -2.86997
H          3.72310       -1.88284       -0.51765
H          6.50290        0.79523       -1.62368
H          7.86347        2.09224       -0.03630
H          5.71221        0.30352        3.25261
H          4.36250       -0.99968        1.64002
H          3.83046        0.70358       -2.56945
H          2.82417        0.61789       -1.11876
H          1.69486       -1.41797       -2.01555
H          2.64021       -1.29145       -3.50932
H          0.94031        0.91049       -2.57324
H          0.41498       -0.22335       -3.62364
