41

C          6.02403       -1.99703       -0.70967
S          4.72008       -0.98445        0.04956
C          5.72914        0.10851        1.15680
C          4.86179        1.07427        1.93209
Ta         5.78899        2.52600        3.32025
C          4.11273        3.79179        4.06208
C          3.43505        4.75058        3.05412
C          2.46799        4.11344        2.04749
C          3.09303        3.12040        4.98976
C          7.98635        2.94037        3.51645
C          8.49261        4.36480        3.22362
C          7.95704        5.43726        4.18284
C          8.74998        2.33597        4.70264
H          5.53741       -2.71109       -1.38733
H          6.58564       -2.55965        0.05031
H          6.72382       -1.37959       -1.29177
H          6.44540        0.64071        0.51079
H          6.29223       -0.54312        1.84075
H          4.12618        0.52172        2.54988
H          4.28183        1.70978        1.23114
H          6.38624        0.92535        3.89277
H          6.24916        3.67138        1.94914
H          5.94098        2.45318        5.11925
H          4.76678        4.42882        4.70069
H          4.21170        5.29763        2.49557
H          2.86756        5.52004        3.62239
H          2.98262        3.40177        1.38613
H          2.00195        4.88081        1.40940
H          1.65562        3.56816        2.55132
H          2.47503        2.37616        4.46019
H          2.38649        3.84973        5.43971
H          3.60211        2.59294        5.80887
H          8.20853        2.32204        2.60976
H          8.20601        4.64381        2.19844
H          9.60339        4.38696        3.26954
H          6.86619        5.54365        4.07564
H          8.40941        6.42227        3.98181
H          8.16237        5.18335        5.23350
H          8.50995        2.86219        5.63955
H          9.85084        2.40038        4.56134
H          8.47738        1.28494        4.85511
