40

C          7.84687       -2.44541        2.77494
O          6.91130       -2.41266        1.71481
C          7.32124       -3.23716        0.61893
C          6.49919       -2.84675       -0.60118
O          6.72897       -3.81943       -1.60452
C          6.29942       -3.39802       -2.92186
C          7.16921       -2.31306       -3.53912
Nb         9.40312       -2.67457       -3.45347
S          9.95637       -1.04103       -1.64194
O         10.08153       -1.16899       -0.16344
O         11.22622       -1.34395       -2.44910
C          9.76338        0.76533       -1.86324
C         10.74335       -2.43811       -5.27527
C         11.99079       -3.21071       -4.90339
S         11.35015       -4.54673       -3.78477
C         12.48054       -4.44784       -2.36262
H          7.47719       -1.76642        3.55662
H          8.84544       -2.11073        2.44062
H          7.94159       -3.46322        3.20699
H          7.15462       -4.30666        0.85975
H          8.39204       -3.08541        0.40092
H          6.80799       -1.83939       -0.93043
H          5.42070       -2.80052       -0.33468
H          5.22856       -3.09757       -2.84327
H          6.35731       -4.31353       -3.52795
H          6.91680       -1.32347       -3.12428
H          6.94103       -2.26043       -4.61943
H          9.14768       -0.99283       -3.96236
H          9.83372       -3.32951       -1.83959
H          8.60698       -4.11714       -4.25680
H          8.79860        1.05849       -1.43073
H          9.79850        0.98596       -2.93442
H         10.58598        1.23781       -1.31086
H         10.96149       -1.39035       -5.51467
H         10.20431       -2.89751       -6.12075
H         12.65396       -2.59600       -4.27968
H         12.58666       -3.66476       -5.71603
H         12.07520       -5.11576       -1.59263
H         12.49208       -3.41934       -1.98094
H         13.48573       -4.78492       -2.65055
