32

C          5.33807       -2.00373       -2.03115
C          4.59176       -0.98538       -1.16194
C          5.20394        0.42648       -1.20463
C          4.51796        1.44788       -0.29756
Nb         5.14267        3.60738       -0.41930
C          3.78768        5.32870       -0.26662
C          2.26164        5.17841       -0.35613
C          1.65270        4.69545        0.96628
C          1.57973        6.48478       -0.80590
S          7.34009        4.54651       -1.06015
H          4.87264       -3.00164       -1.99862
H          6.38347       -2.11098       -1.70081
H          5.36280       -1.68015       -3.08358
H          4.56795       -1.33802       -0.11614
H          3.53702       -0.92502       -1.48418
H          5.19888        0.79042       -2.24668
H          6.27051        0.34859       -0.92044
H          4.50926        1.07048        0.73554
H          3.45309        1.57288       -0.60575
H          6.19800        2.99827        0.87448
H          4.36477        3.31091        1.14073
H          4.85041        2.98360       -2.11124
H          4.15677        5.87235       -1.16846
H          4.06691        5.95790        0.60123
H          2.03096        4.41700       -1.12634
H          1.81663        5.44660        1.75762
H          2.12995        3.76300        1.29583
H          0.56591        4.53622        0.87435
H          1.75808        7.28290       -0.06583
H          0.48800        6.36257       -0.91611
H          1.98371        6.83027       -1.76918
H          8.01282        4.51517        0.11076
