16

O          0.89847       -0.61253       -0.00292
C          2.06692       -0.30457        0.33026
O          2.50223        0.57771        1.10219
C          3.14736       -1.28267       -0.34715
C          4.61182       -0.93782       -0.34988
C          5.11634        0.16008       -1.35535
C          4.60799        1.63742       -1.23028
F          4.87184        2.16249       -0.02792
F          5.28218        2.38782       -2.15933
F          3.30437        1.74430       -1.50957
F          6.48334        0.22787       -1.26879
F          4.80474       -0.24362       -2.62865
F          5.10638       -0.61842        0.88418
F          5.35572       -2.07203       -0.75494
H          2.83647       -1.48193       -1.38095
H          3.07373       -2.23540        0.19931
