36

S          3.26986        1.65370       -1.14800
Ta         4.97580        0.29054       -0.07357
C          5.39763       -1.89896       -0.08450
C          5.65828       -2.66108       -1.24935
C          6.09455       -3.98607       -1.19763
C          6.29667       -4.64919        0.03289
C          5.98403       -3.92379        1.19834
C          5.53763       -2.59986        1.13734
Si         7.20628       -6.28019        0.12021
C          9.03338       -5.93862       -0.34257
C          9.55331       -4.60756        0.21667
C         11.02125       -4.36507       -0.04415
F         11.33325       -4.38500       -1.37306
F         11.43106       -3.15565        0.43510
F         11.82137       -5.30596        0.55204
C          7.16453       -6.99993        1.87203
C          6.55455       -7.58068       -1.09215
Cl         3.46154       -0.08728        1.75099
H          3.74624        1.72121       -2.40984
H          5.98882        1.43259        0.84332
H          6.68782        0.11593       -0.48718
H          5.27623        0.02346       -1.80735
H          5.54843       -2.17920       -2.22316
H          6.30784       -4.50536       -2.13915
H          6.09270       -4.39607        2.18027
H          5.29430       -2.09796        2.07758
H          9.11767       -5.92988       -1.44087
H          9.65598       -6.77563        0.01376
H          9.41948       -4.53929        1.30686
H          9.00168       -3.76111       -0.21717
H          7.61361       -6.31643        2.60656
H          7.72419       -7.94614        1.91137
H          6.13350       -7.20216        2.19531
H          6.51727       -7.18721       -2.11777
H          5.53927       -7.90146       -0.81938
H          7.20243       -8.47046       -1.09716
