21

Al         1.05525        0.55859        0.37002
C         -0.07141       -0.77076        1.43063
N         -0.42420       -1.99481        0.65598
C          0.00438        0.93835       -1.36266
C         -1.42936        1.41890       -1.13481
C         -2.26722        1.78563       -2.36032
O         -3.43574        2.12687       -2.33977
O         -1.59344        1.70878       -3.54309
N          2.76497       -0.02288       -0.12488
H          1.19692        1.97212        1.20823
H         -0.96896       -0.24880        1.83093
H          0.50473       -1.08789        2.31998
H         -0.73088       -1.73176       -0.28232
H         -1.21466       -2.49536        1.07210
H          0.03057        0.02202       -1.98351
H          0.61714        1.70554       -1.87236
H         -1.44329        2.31312       -0.48759
H         -2.02220        0.67352       -0.57862
H         -0.68781        1.40515       -3.28092
H          2.89880       -1.02344       -0.27256
H          3.53330        0.28675        0.46900
