25

N          0.73023        0.07732        0.49506
C          2.18602        0.02996        0.23730
C          2.91378        1.18091        0.92487
C          4.42232        1.19333        0.66215
C          5.15016        2.39942        1.30590
C          6.60569        2.60655        0.94968
S          7.69287        1.48858        1.64692
O          7.31178        1.16110        3.03794
O          8.04989        0.33810        0.76229
C          9.26791        2.38844        1.76118
O          6.86704        2.69894       -0.47307
H          0.25467       -0.64761       -0.04628
H          0.36288        0.96892        0.15383
H          2.43619        0.04749       -0.84301
H          2.56204       -0.92847        0.63150
H          2.71452        1.13443        2.00906
H          2.47959        2.13740        0.57343
H          4.59662        1.21434       -0.42866
H          4.87751        0.26141        1.03625
H          5.07677        2.31832        2.40246
H          4.59229        3.31558        1.02226
H          9.15841        3.17565        2.51450
H          9.47220        2.82360        0.77557
H         10.05119        1.66932        2.03832
H          6.91405        1.78754       -0.82790
