33

N          2.38071       -5.66175        1.88371
C          2.89208       -4.47449        2.44701
N          2.66851       -4.05075        3.65501
N          3.62110       -3.73072        1.56521
C          4.24996       -2.47262        1.92243
C          5.24875       -2.01815        0.84882
C          6.65369       -2.64831        0.90509
C          6.74737       -4.17856        0.72508
Al         5.91730       -4.93603       -0.91831
S          6.75145       -7.25263       -1.20924
O          5.96117       -7.99007       -2.21235
O          8.22224       -7.34925       -1.28516
C          6.27379       -8.24945        0.44721
C          7.40099       -8.45362        1.48681
F          7.94327       -7.27385        1.84935
F          6.91798       -9.04425        2.62224
F          8.37008       -9.25227        1.00236
F          5.26284       -7.54678        1.06093
F          5.79260       -9.47394        0.10990
F          6.42658       -4.25537       -2.38886
H          2.22934       -6.38643        2.57850
H          2.91691       -6.02209        1.09398
H          2.09595       -4.73116        4.16187
H          3.82219       -4.13077        0.64831
H          4.75102       -2.58037        2.90013
H          3.47265       -1.69991        2.06404
H          5.36223       -0.92612        0.94697
H          4.79934       -2.17860       -0.14864
H          7.11224       -2.34866        1.86725
H          7.25905       -2.16221        0.12149
H          6.29926       -4.68766        1.59562
H          7.81281       -4.46547        0.73665
H          4.30521       -5.15534       -0.86862
