44

O          1.19471        0.61216        0.56441
C          2.18896        0.09847        0.02128
O          2.69138       -1.03528        0.06957
C          3.05139        1.17759       -0.98058
C          2.62230        0.87979       -2.42069
C          1.08542        0.81499       -2.76320
F          0.42021        1.91319       -2.34788
F          0.93206        0.73885       -4.11602
F          0.50123       -0.27019       -2.23672
F          3.14440        1.80368       -3.34790
F          3.11923       -0.33247       -2.82980
C          2.80389        2.59381       -0.49358
C          2.54780        3.71129       -1.29547
C          2.36548        4.98430       -0.73206
C          2.45979        5.18411        0.63904
C          2.73524        4.07449        1.44927
C          2.89259        2.80710        0.89891
C          2.84300        4.28885        2.93366
F          3.86495        5.15130        3.24929
F          1.71136        4.85311        3.45772
F          3.07157        3.14867        3.62815
C          2.11543        6.14914       -1.64922
F          3.25901        6.56393       -2.28185
F          1.22537        5.85359       -2.63763
F          1.62720        7.24116       -0.99423
C          4.54908        0.82088       -0.79122
C          5.57939        1.65430       -1.56571
C          6.99514        1.21499       -1.17041
C          8.14181        2.06482       -1.67931
C          8.31260        2.17369       -3.22938
F          7.31454        2.88679       -3.78872
F          9.48029        2.77915       -3.54480
F          8.31912        0.94056       -3.79147
F          8.05917        3.35492       -1.20829
F          9.33640        1.54859       -1.20887
H          2.48023        3.61347       -2.37462
H          2.31826        6.17317        1.07150
H          3.06396        1.96001        1.55851
H          4.65414       -0.25043       -1.00716
H          4.75530        0.92134        0.28587
H          5.44796        2.72522       -1.34675
H          5.43501        1.53358       -2.64703
H          7.18379        0.17990       -1.49233
H          7.10325        1.23063       -0.07366
