70

C          9.93472        5.40266       -2.08201
C          9.10118        4.19146       -2.51581
C          7.67220        4.19475       -1.94993
C          6.80124        2.99962       -2.35070
Ga         5.02002        2.98889       -1.36284
C          3.82586        4.52754       -1.99073
C          3.75751        4.94353       -3.33715
C          2.92620        5.98662       -3.75513
C          2.09681        6.67523       -2.84295
C          2.16067        6.27495       -1.49283
C          3.00895        5.23821       -1.08777
Si         0.91794        7.98441       -3.46421
C         -0.05583        7.23218       -4.92931
C         -0.67053        5.86625       -4.59352
C         -1.26437        5.17089       -5.80354
C         -1.81012        3.71294       -5.58537
C         -2.98454        3.44711       -4.56714
C         -4.42066        4.08284       -4.77421
C         -5.18093        3.78570       -6.12002
C         -6.72200        4.11492       -6.08232
F         -7.39280        3.25564       -5.29600
F         -6.94248        5.36979       -5.64686
F         -7.20953        4.00652       -7.33588
F         -4.64415        4.52894       -7.11592
F         -5.06993        2.46884       -6.43460
F         -5.18370        3.58106       -3.75751
F         -4.33778        5.42607       -4.60935
F         -3.15441        2.09812       -4.51754
F         -2.58593        3.86330       -3.33207
F         -2.20963        3.20547       -6.78912
F         -0.77393        2.95270       -5.13349
F         -2.28870        5.91112       -6.35951
F         -0.31616        5.02731       -6.79154
C         -0.29622        8.52247       -2.11322
C          1.80892        9.51565       -4.13339
C          3.93034        1.24511       -1.43686
C          2.97562        1.03858       -2.60598
S          3.88787        0.87591       -4.18753
C          2.48409        0.55635       -5.29032
H         10.95981        5.36921       -2.48291
H         10.00686        5.45718       -0.98425
H          9.47301        6.34260       -2.42277
H          9.60636        3.26250       -2.19793
H          9.05547        4.14717       -3.61802
H          7.17607        5.13478       -2.25540
H          7.73595        4.24772       -0.84702
H          7.32565        2.05887       -2.10274
H          6.64870        2.98654       -3.44423
H          5.30746        3.26943        0.21201
H          4.36771        4.42935       -4.08686
H          2.91657        6.26224       -4.81687
H          1.53768        6.77860       -0.74557
H          3.03940        4.97001       -0.02587
H          0.65432        7.12082       -5.76351
H         -0.83285        7.93500       -5.26902
H         -1.46335        5.96822       -3.83915
H          0.09368        5.19721       -4.16884
H         -0.88145        7.67670       -1.72537
H         -0.99994        9.27458       -2.49978
H          0.23627        8.97086       -1.26217
H          2.54242        9.23445       -4.90233
H          2.35465       10.02788       -3.32803
H          1.10473       10.23433       -4.57928
H          3.32511        1.26863       -0.51467
H          4.60337        0.37634       -1.33949
H          2.29350        1.89930       -2.70804
H          2.35668        0.12540       -2.51230
H          2.88155        0.41227       -6.30343
H          1.78570        1.40561       -5.30236
H          1.94178       -0.35299       -4.98994
