35

C          0.99886       -2.80054        4.33285
C          2.51168       -2.61961        4.18254
C          2.97705       -1.19229        4.49085
C          4.49504       -0.96809        4.38911
C          5.08882       -1.12426        2.97497
B          6.63924       -0.62378        2.87874
S          7.13339       -0.23831        1.02858
O          6.13904        0.63737        0.38660
O          8.54986        0.13519        0.91737
C          7.07988       -1.86549       -0.08234
C          5.80739       -2.07402       -0.94697
F          5.69849       -1.13572       -1.90520
F          5.84895       -3.28848       -1.57411
F          4.68934       -2.05791       -0.19024
F          8.14009       -1.84594       -0.93543
F          7.20544       -2.95720        0.73113
C          7.84183       -1.38711        3.69374
C          8.01318       -2.88676        3.68049
O          9.06769       -3.48766        3.63331
O          6.84852       -3.61384        3.80176
H          0.68659       -3.83037        4.10566
H          0.45176       -2.12938        3.65289
H          0.66896       -2.56915        5.35787
H          2.81023       -2.89238        3.15836
H          3.03628       -3.32412        4.85115
H          2.63734       -0.92438        5.50827
H          2.46752       -0.49317        3.80339
H          4.99946       -1.64710        5.10266
H          4.72358        0.05003        4.74575
H          4.49472       -0.49969        2.28580
H          4.92073       -2.15644        2.60652
H          6.69099        0.56601        3.18129
H          7.65772       -1.13505        4.75622
H          8.81685       -0.94762        3.44639
H          6.10661       -2.99062        3.67980
