26

N          2.81521        0.50537       -1.21328
C          2.09232       -0.39656       -0.47866
O          0.87568       -0.51172       -0.62810
C          2.86914       -1.24981        0.52011
C          4.34108       -0.86381        0.71617
C          5.25272       -1.69734        1.63472
S          4.90466       -1.32938        3.41492
O          3.53055       -0.84953        3.52532
O          5.38192       -2.36613        4.30849
C          5.92123        0.26120        3.87060
F          6.16490        1.04705        2.80269
F          5.12600        0.96211        4.72103
F          7.05445       -0.00665        4.51389
C          5.07928       -3.20780        1.43172
F          5.04740       -3.49199        0.09462
F          6.06175       -3.95654        1.96815
F          3.89832       -3.69883        1.94475
C          6.87199       -1.35302        1.26818
O          7.03419       -1.05947        0.07409
O          7.62337       -1.45978        2.24587
H          2.32482        1.04190       -1.91775
H          3.82299        0.57326       -1.14810
H          2.77333       -2.28376        0.15704
H          2.31366       -1.20609        1.46583
H          4.40045        0.17663        1.06921
H          4.89489       -0.89894       -0.23641
