42

F          5.19635       -1.12948        0.31670
C          4.53395       -0.07066       -0.20991
C          3.91837       -0.36714       -1.55217
C          3.65808       -1.68810       -1.94454
C          3.06226       -1.97755       -3.18448
C          2.72118       -0.88449       -4.00132
C          2.97746        0.43671       -3.61184
C          3.58260        0.70541       -2.38150
C          2.59509        1.59754       -4.48782
F          2.19399        1.22100       -5.73099
F          1.56760        2.33201       -3.95518
F          3.62943        2.47876       -4.66021
Ga         2.74154       -3.83020       -3.91930
S          2.61919       -5.33682       -1.96435
O          2.17199       -4.66052       -0.72944
O          2.00068       -6.63170       -2.30931
C          4.42288       -5.86980       -1.48170
F          5.21995       -4.78009       -1.29570
F          4.42274       -6.58308       -0.33555
F          5.00453       -6.63181       -2.44518
C          4.29417       -4.49312       -5.01646
C          4.05696       -5.82536       -5.73210
C          5.28368       -6.25273       -6.56003
C          5.08768       -7.53964       -7.33343
C          6.31899       -7.98058       -8.18342
F          6.63696       -7.03106       -9.09745
F          7.40226       -8.17729       -7.39533
F          6.07657       -9.13048       -8.85010
F          4.80487       -8.59489       -6.49771
F          4.03565       -7.43753       -8.22072
F          3.59525        0.30398        0.71474
F          5.42952        0.96503       -0.27138
H          3.92204       -2.49835       -1.26378
H          2.24201       -1.05511       -4.96824
H          3.79526        1.73027       -2.07734
H          1.28949       -4.04268       -4.49628
H          5.18491       -4.55431       -4.37085
H          4.50687       -3.69853       -5.75382
H          3.18256       -5.74676       -6.39616
H          3.82161       -6.61479       -5.00335
H          6.15431       -6.38893       -5.90047
H          5.54490       -5.46679       -7.28560
