42

N          3.28560       -2.65788        2.33622
C          4.64020       -2.23059        2.74054
C          5.25791       -1.28652        1.70579
C          4.58255        0.08550        1.58631
C          4.87598        1.05728        2.75022
C          6.31446        1.50697        2.97487
S          6.99010        2.53874        1.88336
O          6.00712        3.04773        0.91129
O          8.00381        3.44421        2.44960
C          8.15277        1.59059        0.63404
C          8.99973        2.37029       -0.42109
C          8.26083        3.34456       -1.40130
F          7.21364        2.75328       -2.00572
F          7.85444        4.46485       -0.79451
F          9.13981        3.71384       -2.38261
F          9.96951        3.09527        0.19818
F          9.64386        1.44884       -1.23314
F          9.08308        0.87235        1.35668
F          7.40648        0.66993       -0.06813
C          6.92190        1.40171        4.35524
C          7.22147       -0.01602        4.90738
C          8.39079       -0.69020        4.18530
C          7.48498        0.04780        6.41791
H          2.90332       -3.31514        3.01769
H          3.34160       -3.16286        1.44898
H          5.33108       -3.08244        2.90428
H          4.54523       -1.71456        3.70950
H          5.24420       -1.79666        0.72509
H          6.32052       -1.13678        1.95178
H          3.49139       -0.05499        1.50718
H          4.90866        0.56689        0.65417
H          4.54314        0.59136        3.69526
H          4.21561        1.93186        2.60647
H          6.23428        1.88385        5.08500
H          7.84874        1.99700        4.38990
H          6.31969       -0.63614        4.75240
H          9.32615       -0.13575        4.36523
H          8.22959       -0.70606        3.10058
H          8.53724       -1.72472        4.53500
H          8.37374        0.66495        6.62951
H          7.66560       -0.95221        6.84280
H          6.63510        0.49813        6.95393
