38

N          1.22208        0.05253       -0.62156
C          2.58309       -0.09164       -0.05399
C          3.04662        1.19668        0.62863
C          4.41747        1.10229        1.30441
Ga         5.16259        2.93261        1.85704
C          3.88112        3.94644        3.11933
C          3.29150        3.12182        4.27101
C          4.32316        2.55503        5.25484
C          4.47429        5.27723        3.59551
C          7.11111        2.74283        2.50935
C          8.00946        1.94438        1.54743
C          8.10511        2.60203        0.17079
S          9.00461        1.62670       -1.09937
H          1.01801       -0.72412       -1.25376
H          1.19999        0.89682       -1.19914
H          3.34125       -0.37212       -0.81335
H          2.55694       -0.91031        0.68511
H          2.27659        1.49921        1.35954
H          3.06719        1.99967       -0.13432
H          5.14314        0.65887        0.59727
H          4.36517        0.40931        2.16371
H          5.17308        3.83482        0.48847
H          3.04196        4.19112        2.44172
H          2.71508        2.28090        3.84859
H          2.55932        3.73039        4.84873
H          5.03497        1.89766        4.73436
H          3.84141        1.97268        6.05643
H          4.90747        3.35602        5.73285
H          5.37210        5.13836        4.22007
H          3.75569        5.87642        4.19590
H          4.78228        5.89719        2.73886
H          7.12691        2.25028        3.49677
H          7.54040        3.74923        2.66745
H          7.60930        0.92530        1.41615
H          9.04141        1.81706        1.93819
H          8.56510        3.59850        0.23741
H          7.10070        2.74610       -0.25509
H         10.15852        1.47443       -0.40475
