42

N          5.46685       -1.53988       -2.70789
C          4.95826       -0.98141       -1.43833
C          5.46236       -1.78605       -0.23685
C          4.98942       -1.25586        1.11532
Ta         5.54859       -2.12289        3.03695
C          4.19474       -3.21620        4.49163
C          3.83423       -4.73861        4.51938
C          5.00416       -5.78039        4.70318
C          4.55282       -7.15480        5.33039
F          3.48685       -7.67537        4.68630
F          5.57335       -8.04537        5.21875
F          4.25774       -7.05312        6.64095
F          5.55344       -6.09452        3.50124
F          5.97977       -5.30865        5.52565
F          2.95324       -4.98228        5.56870
F          3.16778       -5.09265        3.38249
F          4.59371       -2.95636        5.82094
F          2.90288       -2.63735        4.37558
C          7.73971       -1.78562        2.99946
C          8.13105       -0.36291        2.52902
C          7.77110        0.76956        3.50325
C          8.54501       -2.21039        4.23415
H          5.03810       -1.06162       -3.50226
H          5.18043       -2.51895       -2.77909
H          3.85109       -0.93654       -1.38952
H          5.32043        0.05755       -1.36032
H          6.56495       -1.81263       -0.28228
H          5.12799       -2.83323       -0.34264
H          3.88172       -1.23437        1.15704
H          5.31922       -0.19701        1.24699
H          6.28987       -3.67233        3.42551
H          4.77033       -3.44858        2.15795
H          4.81948       -0.93679        4.19473
H          7.99976       -2.48287        2.17211
H          7.66842       -0.15140        1.55051
H          9.22675       -0.32797        2.35028
H          6.68846        0.80304        3.70127
H          8.07589        1.75046        3.10639
H          8.27039        0.63658        4.47420
H          8.22850       -1.67572        5.14420
H          9.62898       -2.00803        4.11091
H          8.41613       -3.28187        4.43428
