24

C          1.42868       -0.33432        1.08899
S          3.04287        0.25965        0.50519
C          3.47878       -1.07008       -0.69012
C          4.79873       -0.80139       -1.40321
B          5.32967       -2.06450       -2.35627
C          4.24843       -2.52744       -3.55995
C          4.09690       -1.60559       -4.72730
O          4.23049       -1.86970       -5.91092
O          3.77246       -0.30127       -4.38962
C          6.80802       -1.72970       -2.97840
H          1.05355        0.38964        1.82490
H          1.51558       -1.31747        1.57423
H          0.70673       -0.40280        0.26210
H          2.63971       -1.14785       -1.40152
H          3.53832       -2.01976       -0.13559
H          5.58526       -0.64267       -0.64304
H          4.73790        0.18346       -1.91994
H          5.39778       -3.04884       -1.59799
H          3.24835       -2.63973       -3.10001
H          4.52771       -3.51241       -3.95996
H          3.90451       -0.22960       -3.42299
H          6.80929       -0.84769       -3.64778
H          7.20719       -2.56890       -3.57541
H          7.55260       -1.52355       -2.18789
