36

N          0.99334       -0.65854        0.47882
C          2.23501        0.10699        0.21523
C          2.82108       -0.22698       -1.15852
C          4.11127        0.51976       -1.50997
Ga         5.01325       -0.23950       -3.18866
C          3.78484       -0.02558       -4.84802
C          3.24518        1.38664       -5.10591
C          4.32006        2.45720       -5.33764
C          4.41911       -0.64510       -6.09750
C          6.92913        0.43748       -3.53247
C          8.01443       -0.27332       -2.72811
N          7.85051       -0.02882       -1.27499
H          0.73823       -0.58979        1.46632
H          1.18339       -1.64944        0.30776
H          3.02088       -0.06942        0.97744
H          1.98537        1.18109        0.26003
H          2.04461       -0.04125       -1.92142
H          3.01429       -1.31735       -1.18927
H          4.84243        0.40411       -0.69021
H          3.90624        1.60213       -1.60622
H          5.13838       -1.85494       -2.97787
H          2.91537       -0.65520       -4.58021
H          2.62805        1.69539       -4.24429
H          2.56025        1.39008       -5.98510
H          4.98390        2.53618       -4.46426
H          3.87370        3.44778       -5.52225
H          4.95227        2.21259       -6.20496
H          5.34768       -0.13032       -6.39687
H          3.74422       -0.62328       -6.98141
H          4.69146       -1.69673       -5.91622
H          7.02445        1.53013       -3.37666
H          7.12896        0.27282       -4.60580
H          9.03359        0.02382       -3.07094
H          7.93188       -1.36301       -2.89060
H          7.59559        0.95117       -1.13540
H          8.73733       -0.17063       -0.78791
