27

C          5.29281       -2.81589        0.37051
C          4.48952       -1.68046        1.02249
B          3.03645       -1.34767        0.32630
C          1.97761       -2.60896        0.35963
C          2.07165       -3.49329        1.46246
C          1.21860       -4.57715        1.66670
C          0.19627       -4.84099        0.74777
C          0.05147       -3.99348       -0.34428
C          0.91153       -2.89432       -0.54580
C          0.56774       -2.07797       -1.77407
O         -0.43313       -2.29790       -2.45073
O          1.39419       -1.08107       -2.12085
C          2.34094       -0.02409        1.01660
H          6.28575       -2.97176        0.82991
H          5.45380       -2.60854       -0.70020
H          4.75194       -3.77415        0.42708
H          5.09234       -0.75360        0.98161
H          4.37982       -1.88937        2.10584
H          3.36856       -1.06509       -0.85568
H          2.86211       -3.31551        2.19577
H          1.35323       -5.22072        2.54122
H         -0.47707       -5.69056        0.88388
H         -0.74009       -4.14965       -1.07912
H          2.19887       -1.06380       -1.49762
H          2.10230       -0.21154        2.07940
H          1.40020        0.28608        0.53215
H          3.02115        0.84611        0.98989
