27

N          1.02648        0.39137        1.93475
C          2.24457        1.09633        1.53984
Nb         2.81852       -1.02519        1.83910
C          1.55657       -2.47126        3.04882
C          1.57353       -2.71964        4.44669
C          0.81124       -3.71309        5.05444
C         -0.00747       -4.56812        4.28475
C         -0.06790       -4.37454        2.91396
C          0.67428       -3.32569        2.31222
C          0.54302       -3.00412        0.89070
O          1.20128       -2.12943        0.31824
O         -0.39350       -3.66634        0.13226
N          3.98008       -1.72865        0.28777
H          0.23927        0.36941        1.29002
H          0.74428        0.52015        2.89989
H          2.50831        1.94852        2.16960
H          2.20706        1.35901        0.47210
H          4.39900       -0.27328        2.17253
H          3.82784       -1.86566        3.02754
H          2.90555       -0.26861        3.49257
H          2.23617       -2.10033        5.05573
H          0.86075       -3.85738        6.13836
H         -0.57183       -5.37503        4.75655
H         -0.68075       -5.07139        2.32277
H         -0.86361       -4.27852        0.72615
H          3.56215       -2.30997       -0.44104
H          4.99123       -1.74398        0.19505
