20

Br         0.88037        0.75372        0.22241
Al         3.20508        0.29614       -0.29686
C          4.31408        1.10345        1.19265
C          5.82022        0.90313        0.99395
C          6.65431        1.53574        2.12775
C          8.16071        1.55920        1.97520
C          8.89586        0.18234        1.90803
F          8.61759       -0.47919        0.76711
F         10.24047        0.34776        1.96807
F          8.53300       -0.60334        2.95172
F          8.54861        2.25295        0.84870
F          8.73144        2.22331        3.05409
H          3.40043       -1.32476       -0.34559
H          3.55286        1.01520       -1.72123
H          3.99980        0.65996        2.15479
H          4.08676        2.18250        1.26322
H          6.13912        1.33994        0.03320
H          6.04720       -0.17340        0.92900
H          6.42809        1.04235        3.08528
H          6.36840        2.59389        2.24242
