26

C          2.36069        0.30066       -1.40769
S          3.85054        0.05266       -0.39892
C          4.14647        1.77758        0.18405
C          5.36312        1.84411        1.09333
Ta         6.02154        3.78168        1.81158
C          4.20479        4.78261        2.71651
C          3.57564        4.20965        4.01372
F          4.27558        4.54901        5.11903
F          2.28866        4.62265        4.22969
F          3.53511        2.84477        3.95137
F          4.24188        6.15630        2.92628
F          3.17394        4.56006        1.75329
C          8.09891        3.22777        2.46204
F          8.84078        2.62699        1.43041
F          8.92650        4.21185        2.95669
F          8.11167        2.22934        3.44917
H          2.06937       -0.68023       -1.80601
H          2.55509        0.98000       -2.24967
H          1.53240        0.69661       -0.80352
H          3.23912        2.11222        0.70630
H          4.27540        2.40628       -0.71079
H          6.26839        1.46508        0.57555
H          5.22669        1.21816        1.99624
H          6.24567        3.96007        3.54897
H          5.50942        5.18298        0.86708
H          7.21832        4.52496        0.75146
