36

S          4.25601        1.27443        2.70562
C          3.42880       -0.37605        2.56744
C          3.47460       -0.86821        1.12503
C          4.88485       -1.12970        0.55939
C          5.73751       -2.20403        1.21665
S          5.18629       -3.76054        1.22303
O          3.94421       -3.91780        0.44522
O          6.24442       -4.77656        1.13334
C          4.50024       -4.22927        2.98130
C          4.15627       -5.71365        3.32564
C          3.15821       -6.47756        2.38968
F          2.00813       -5.79506        2.22262
F          3.69020       -6.75379        1.19489
F          2.84132       -7.66839        2.97971
F          5.29055       -6.45600        3.39152
F          3.57734       -5.74611        4.58425
F          5.42213       -3.85035        3.92518
F          3.35481       -3.49852        3.22972
C          7.22901       -1.97938        1.33295
C          7.70210       -0.84318        2.28225
C          7.66908       -1.22829        3.75393
O          8.46874       -2.02096        4.25108
N          6.70401       -0.60487        4.50129
H          3.75264        1.60622        3.91774
H          2.39199       -0.25346        2.90451
H          3.94435       -1.08335        3.22726
H          2.95688       -0.13923        0.47789
H          2.90299       -1.80680        1.07785
H          5.45937       -0.18708        0.61495
H          4.75627       -1.32462       -0.52332
H          7.64416       -1.72761        0.33423
H          7.72402       -2.91283        1.63267
H          7.11848        0.07369        2.10581
H          8.75512       -0.61836        2.05033
H          5.97567       -0.05676        4.04529
H          6.53031       -0.97454        5.42953
