25

O          3.69560       -0.31595       -1.73110
Ga         2.70452       -0.00409       -0.20358
S          0.80861        1.42827       -0.94200
O         -0.16045        1.67727        0.12762
O          1.09362        2.53165       -1.85751
F         -0.00278        0.30127       -1.94705
C          3.80672        1.27856        0.86922
C          4.99792        1.79698        0.32480
C          5.79889        2.68322        1.05312
C          5.43145        3.08236        2.34444
C          4.25215        2.58093        2.89149
C          3.44977        1.68894        2.16020
C          3.81943        2.98772        4.27405
F          4.72371        3.79585        4.90035
F          2.63390        3.66288        4.26910
F          3.63589        1.90688        5.09249
C          7.08723        3.22203        0.49236
F          7.30007        2.87222       -0.79918
F          7.14273        4.58977        0.54690
F          8.17792        2.78151        1.20202
H          3.16213       -0.76050       -2.40483
H          1.94851       -1.19617        0.47618
H          5.29509        1.50048       -0.68290
H          6.05410        3.77419        2.91047
H          2.52826        1.31749        2.61535
