53

F          0.98767       -0.94508       -1.17227
C          2.19726       -0.69192       -0.55123
O          2.72324       -1.72141        0.07305
C          1.88411       -2.36944        1.15747
N          2.72114       -3.27940        1.79280
C          2.20688       -3.97402        2.80800
C          0.85558       -3.87849        3.31237
C          0.41817       -4.64106        4.38790
C          1.25148       -5.56222        5.06712
C          2.58614       -5.66806        4.56883
C          3.04384       -4.92404        3.50194
Si         0.66473       -6.58721        6.48419
C          0.74475       -8.46057        6.06221
C          0.05204       -8.79323        4.73495
C          0.05700      -10.27483        4.41317
C         -0.72840      -10.72925        3.12965
C         -0.33851      -10.16553        1.71090
C          1.08905      -10.43582        1.07920
C          1.54618      -11.92996        0.88286
C          2.76125      -12.10981       -0.10539
F          3.78045      -11.29661        0.22009
F          3.18995      -13.38878       -0.02205
F          2.39958      -11.87403       -1.37834
F          1.92399      -12.44754        2.07594
F          0.52189      -12.67175        0.38263
F          1.04481       -9.86144       -0.15865
F          2.02287       -9.79059        1.81447
F         -1.26195      -10.65897        0.83640
F         -0.47205       -8.81336        1.73780
F         -0.68915      -12.09204        3.04316
F         -2.03541      -10.36393        3.30450
F          1.33748      -10.76677        4.30148
F         -0.54226      -10.99447        5.43212
C          1.72454       -6.39918        8.04996
C         -1.13532       -6.18467        6.93470
F          3.04989       -0.26952       -1.52685
F          1.95203        0.40826        0.25035
H          1.01561       -2.80814        0.61652
H          1.51899       -1.52835        1.78923
H          0.15360       -3.18803        2.83875
H         -0.61923       -4.51263        4.71662
H          3.28645       -6.36331        5.04794
H          4.07177       -5.03033        3.14723
H          0.29893       -9.03778        6.88796
H          1.80541       -8.75346        6.00713
H          0.54170       -8.25034        3.91357
H         -1.00024       -8.47027        4.74166
H          2.78414       -6.59431        7.82864
H          1.41087       -7.09301        8.84526
H          1.65519       -5.37384        8.44090
H         -1.82187       -6.36078        6.09403
H         -1.23761       -5.12923        7.22504
H         -1.47264       -6.80166        7.78096
