64

S          4.28283       -6.09141        1.31948
C          4.27110       -4.26147        1.06356
C          5.02913       -3.90688       -0.22195
C          4.47375       -4.55613       -1.49103
In         5.49120       -3.98599       -3.40326
C          4.70249       -1.87394       -4.01697
C          4.93187       -0.65737       -3.10071
F          4.39754       -0.87284       -1.86670
F          6.25727       -0.41435       -2.93433
F          4.37629        0.50521       -3.56366
F          5.21889       -1.47639       -5.26252
F          3.31007       -1.91789       -4.19770
C          7.68939       -3.74367       -3.02229
C          8.35013       -4.53314       -2.05801
C          9.71828       -4.40505       -1.79558
C         10.51256       -3.47098       -2.49335
C          9.86187       -2.67298       -3.45544
C          8.49074       -2.80787       -3.70553
Si        12.36689       -3.42565       -2.22761
C         13.05807       -5.12950       -2.75852
C         12.50786       -5.59453       -4.11412
C         12.89649       -7.02041       -4.45847
C         12.19028       -7.66159       -5.70836
C         12.35253       -7.00982       -7.13417
C         13.76115       -6.94576       -7.85536
C         14.54237       -8.29339       -8.08823
C         15.66992       -8.20401       -9.18635
F         16.47995       -7.15057       -8.96792
F         16.40991       -9.33092       -9.13052
F         15.14849       -8.10608      -10.42096
F         15.14119       -8.66927       -6.93330
F         13.68612       -9.26930       -8.48606
F         13.50949       -6.40188       -9.08305
F         14.56675       -6.09112       -7.17727
F         11.51516       -7.68515       -7.96638
F         11.92491       -5.71790       -7.06767
F         12.58792       -8.96387       -5.81881
F         10.85051       -7.65173       -5.46477
F         14.25865       -7.14057       -4.64702
F         12.57583       -7.87383       -3.42602
C         13.18250       -2.06566       -3.26094
C         12.83191       -3.18672       -0.40874
H          4.05709       -6.05079        2.65410
H          4.73822       -3.79646        1.94417
H          3.22504       -3.92800        0.99756
H          6.08995       -4.17190       -0.08201
H          5.00059       -2.80816       -0.31072
H          3.40562       -4.30727       -1.60611
H          4.53057       -5.65508       -1.41533
H          5.10737       -4.99392       -4.79912
H          7.78649       -5.27770       -1.48623
H         10.17245       -5.05012       -1.03413
H         10.43249       -1.93107       -4.02357
H          8.03849       -2.15585       -4.45861
H         12.76706       -5.84995       -1.97820
H         14.15940       -5.10569       -2.77097
H         12.86333       -4.94675       -4.92795
H         11.40879       -5.53757       -4.11729
H         12.98604       -2.18700       -4.33559
H         14.27284       -2.07249       -3.11513
H         12.81112       -1.07326       -2.96770
H         12.33728       -3.93582        0.22574
H         12.52036       -2.19415       -0.05377
H         13.91783       -3.27812       -0.25659
