73

N          2.65106       -0.84890       -5.44740
C          2.84573       -1.52280       -4.27085
O          2.18493       -2.52083       -3.98262
C          3.90405       -0.93389       -3.33363
C          4.85668        0.12306       -3.88513
Ta         6.36147        1.20328       -2.74718
C          5.36646        2.81865       -1.64321
C          5.60600        4.07896       -2.23824
C          5.02791        5.25570       -1.74816
C          4.15803        5.20055       -0.65439
C          3.87818        3.96971       -0.06062
C          4.48301        2.79667       -0.53692
C          4.12443        1.51688        0.17002
O          3.13076        1.40860        0.87395
O          4.94623        0.46617       -0.01555
C          8.56579        1.00857       -2.83067
C          9.34419        2.18102       -2.68944
C         10.73526        2.16849       -2.77006
C         11.44853        0.97143       -3.00655
C         10.68185       -0.20083       -3.15352
C          9.28621       -0.18021       -3.06282
Si        13.31373        0.97000       -3.12338
C         14.00449        2.33103       -1.97463
C         13.50155        2.23849       -0.52703
C         14.00892        3.37638        0.33992
C         13.42329        3.48421        1.79490
C         13.54798        2.27302        2.79514
C         14.96048        1.72120        3.24775
C         15.95982        2.71119        3.95483
C         17.13573        1.99802        4.72601
F         17.75718        1.09825        3.94025
F         18.03317        2.93507        5.09523
F         16.69476        1.37937        5.83441
F         16.52565        3.51862        3.02723
F         15.29754        3.47245        4.86384
F         14.68676        0.71795        4.13237
F         15.58150        1.17487        2.17186
F         12.87895        2.63154        3.92387
F         12.90551        1.20304        2.24913
F         13.97640        4.57013        2.41174
F         12.08350        3.70490        1.67782
F         15.38322        3.34201        0.45388
F         13.70230        4.59336       -0.22947
C         14.02755       -0.70754       -2.60947
C         13.92358        1.37645       -4.87056
H          2.00239       -1.23602       -6.12092
H          3.28085       -0.10358       -5.71938
H          4.47362       -1.78939       -2.94308
H          3.34547       -0.55142       -2.46266
H          4.30284        1.01533       -4.26881
H          5.44705       -0.26895       -4.73772
H          7.02394        1.04430       -1.06012
H          6.94039        2.00459       -4.27118
H          6.62224       -0.47640       -2.26357
H          6.26142        4.14856       -3.11465
H          5.24955        6.21362       -2.22510
H          3.69620        6.11214       -0.26961
H          3.18889        3.88953        0.78191
H          5.85387        0.74649       -0.42522
H          8.85133        3.14526       -2.51729
H         11.27417        3.11519       -2.65287
H         11.18077       -1.15972       -3.32800
H          8.74000       -1.12268       -3.15440
H         13.72108        3.30508       -2.40291
H         15.10514        2.29096       -2.00076
H         13.81909        1.29544       -0.06027
H         12.40175        2.25511       -0.49677
H         13.72924       -0.98006       -1.58722
H         15.12654       -0.69945       -2.65617
H         13.67289       -1.50623       -3.27658
H         13.53382        2.34970       -5.20101
H         13.57084        0.62009       -5.58623
H         15.02222        1.41051       -4.92352
