14

O          1.28632        0.04310       -0.33212
C          2.51306        0.14874       -0.25409
O          3.42018        0.16556       -1.14715
C          3.21388        0.27585        1.19305
C          2.68649        1.39041        2.13781
C          1.15625        1.53060        2.48588
F          0.58338        0.38465        2.88629
F          1.04302        2.41791        3.52624
F          0.45067        2.04270        1.46684
F          3.34515        1.32716        3.34319
F          3.01667        2.60287        1.57370
Cl         2.92715       -1.36097        2.08070
O          4.53788        0.48314        0.98659
H          4.51562        0.36272       -0.04731
