63

N          4.20662       -3.43148        1.74581
C          3.69208       -2.06798        1.51237
C          4.19737       -1.10548        2.58214
C          3.75026        0.33921        2.35509
C          4.37289        1.36087        3.34190
C          5.88354        1.41153        3.37654
C          6.61421        1.88510        2.28497
C          5.98733        2.47995        1.11449
C          6.70187        2.94492        0.03314
C          8.11884        2.85490       -0.02184
C          8.76846        2.28692        1.10887
C          8.06347        1.83142        2.19899
C          8.86314        3.32750       -1.19048
C          9.09020        4.87802       -1.36563
C          9.88627        5.67904       -0.26748
C         11.42446        5.41045        0.00453
C         12.44031        5.52714       -1.19331
C         13.94617        5.67130       -0.74534
F         14.29000        4.73168        0.15474
F         14.73382        5.52181       -1.83461
F         14.19623        6.88583       -0.22109
F         12.36698        4.42029       -1.96676
F         12.16272        6.62219       -1.95098
F         11.79654        6.35778        0.92679
F         11.58306        4.19649        0.57787
F          9.79430        7.00382       -0.61337
F          9.28011        5.52739        0.93512
F          9.72110        5.16170       -2.56290
F          7.86332        5.47993       -1.41845
F         10.13906        2.77468       -1.27355
F          8.21142        3.00577       -2.40272
C          6.54752        1.04934        4.68022
C          6.69805       -0.43717        5.03256
O          7.53954       -1.07731        4.07650
C          7.66959       -2.46848        4.27899
C          8.38539       -3.02995        3.05799
O          8.70600       -4.39817        3.30880
C          9.31482       -5.00569        2.18681
H          3.80140       -4.08573        1.07468
H          3.91460       -3.75258        2.67117
H          2.58356       -2.02119        1.46781
H          4.06204       -1.73696        0.52820
H          5.29749       -1.13789        2.60316
H          3.84672       -1.45353        3.57339
H          2.64712        0.40595        2.40884
H          4.03115        0.62691        1.32906
H          3.99779        1.12640        4.35563
H          3.93637        2.35218        3.09195
H          4.90187        2.58611        1.08843
H          6.16213        3.38185       -0.80997
H          9.85453        2.17885        1.10134
H          8.62256        1.35383        3.00390
H          5.96744        1.48146        5.52455
H          7.54845        1.50631        4.74730
H          5.70922       -0.93838        5.04877
H          7.13983       -0.54495        6.04883
H          6.67693       -2.94995        4.38722
H          8.25362       -2.69356        5.19611
H          9.30503       -2.44369        2.86773
H          7.73301       -2.94094        2.16994
H          9.52554       -6.05022        2.45377
H         10.26459       -4.50470        1.91567
H          8.65005       -4.98585        1.30204
