33

I          4.34348        0.35887        2.31201
In         2.90121       -0.61779        0.03238
C          4.53125       -1.45978       -1.28517
C          5.81709       -1.80533       -0.82425
C          6.78571       -2.34519       -1.68204
C          6.50785       -2.54835       -3.03929
C          5.24629       -2.20089       -3.51889
C          4.27715       -1.66693       -2.65054
C          4.92525       -2.36172       -4.97807
F          5.82920       -3.13916       -5.64439
F          3.69999       -2.93005       -5.18443
F          4.89664       -1.16145       -5.64004
C          8.13971       -2.76266       -1.17681
F          8.41529       -2.30875        0.06961
F          8.27250       -4.13032       -1.13167
F          9.15521       -2.32565       -1.98947
C          2.03822        1.15059       -1.01146
C          2.97400        2.35040       -1.17600
C          2.33710        3.54234       -1.91127
C          3.25871        4.76061       -2.03194
H          1.81694       -1.86935        0.63240
H          6.07244       -1.64072        0.22603
H          7.26107       -2.96670       -3.70601
H          3.29983       -1.41076       -3.07066
H          1.12966        1.44769       -0.46285
H          1.70085        0.79358       -2.00121
H          3.88678        2.04933       -1.72110
H          3.32426        2.68717       -0.18463
H          1.41125        3.83175       -1.38416
H          2.02125        3.21670       -2.91796
H          3.55827        5.12960       -1.03914
H          2.77177        5.59216       -2.56453
H          4.18065        4.50971       -2.57869
