31

F          2.46352        0.74078       -0.59783
C          2.45508       -0.35786        0.22333
Nb         3.09220       -2.25851       -0.75056
S          4.56376       -2.66663       -2.67358
O          5.97610       -2.26924       -2.72700
O          4.22913       -4.09091       -2.89994
C          3.86171       -1.76241       -4.26662
C          4.86757       -1.68098       -5.45769
C          4.24450       -1.26024       -6.83983
F          3.43377       -2.21242       -7.33889
F          3.54371       -0.11187       -6.73327
F          5.24038       -1.05781       -7.73830
F          5.83575       -0.76836       -5.18483
F          5.44180       -2.89948       -5.65598
F          2.73594       -2.39034       -4.70780
F          3.52093       -0.48930       -3.90135
C          2.82701       -4.01147        0.59697
C          3.75220       -4.58741        1.69265
C          4.18840       -3.56255        2.78996
F          4.65869       -2.43055        2.22901
F          3.16123       -3.24226        3.60265
F          5.17045       -4.09553        3.55446
F          3.14918       -5.63341        2.35330
F          4.88115       -5.07231        1.10954
F          1.63023       -3.61447        1.25302
F          2.46997       -5.07845       -0.20753
F          3.00814        0.04233        1.40962
F          1.08901       -0.57030        0.51713
H          4.41915       -1.15792       -0.66280
H          2.14751       -2.32815       -2.24164
H          4.67152       -2.93994       -0.55662
