51

F          1.72580       -0.82155        0.35290
C          2.15747        0.46319        0.38484
C          2.76869        0.85666        1.70423
C          3.07078       -0.11525        2.65820
C          3.66991        0.23480        3.89277
C          3.92940        1.61134        4.10539
C          3.60875        2.57299        3.14886
C          3.02554        2.21295        1.92979
C          3.85950        4.03093        3.42787
F          4.76917        4.23670        4.41584
F          4.31597        4.69734        2.32535
F          2.71630        4.68116        3.81248
C          4.02360       -0.73115        4.94555
S          4.73113       -2.21031        4.50900
O          4.80549       -3.14188        5.62674
O          4.28431       -2.67703        3.19955
C          6.58600       -1.80956        4.15273
C          7.59635       -2.96053        3.82628
C          7.40318       -3.87692        2.55586
C          7.32311       -3.20960        1.13532
F          8.37258       -2.38555        0.93049
F          7.37982       -4.19566        0.20562
F          6.18896       -2.53073        0.95130
F          8.50740       -4.68957        2.52275
F          6.31495       -4.66066        2.71412
F          8.84042       -2.38888        3.70124
F          7.64179       -3.80989        4.88610
F          6.64644       -0.90078        3.13318
F          7.09183       -1.20014        5.27153
C          3.84778       -0.38428        6.35740
C          2.74469        0.43299        6.72109
C          2.49966        0.78931        8.04388
C          3.33032        0.34749        9.08089
C          4.41364       -0.46641        8.73945
C          4.67741       -0.82455        7.41645
C          5.36653       -0.90432        9.82121
F          4.75473       -1.02242       11.03731
F          5.95526       -2.09914        9.55909
F          6.38588       -0.00351        9.99953
C          1.32684        1.66518        8.39363
F          0.48793        1.88481        7.34831
F          0.56846        1.13175        9.40060
F          1.72275        2.89866        8.84074
F          3.04249        0.60581       -0.65072
F          1.08168        1.24903        0.06460
H          2.84910       -1.15926        2.45544
H          4.40688        1.92331        5.03329
H          2.78056        2.96501        1.18148
H          2.05939        0.77369        5.94672
H          3.13349        0.61939       10.11617
H          5.53162       -1.46097        7.20303
