25

C          3.10970        0.42033       -1.14332
C          2.48379        0.09118        0.22124
B          2.93968       -1.35504        0.86137
C          2.01544       -1.77581        2.13825
O          0.59037       -1.96617        1.69583
C         -0.27996       -2.33483        2.60381
F         -0.42866       -1.45445        3.66258
F         -1.51545       -2.44937        2.03104
F         -0.01831       -3.55330        3.20242
C          4.48444       -1.24110        1.37297
O          4.98978       -2.57622        1.85823
C          6.24682       -2.64800        2.22487
F          6.59785       -1.81326        3.27221
F          6.53029       -3.91719        2.63851
F          7.16021       -2.35419        1.22807
H          2.76059        1.37992       -1.56542
H          2.87252       -0.36966       -1.87371
H          4.20946        0.47644       -1.08892
H          1.38513        0.08985        0.10647
H          2.69811        0.92308        0.92436
H          2.86673       -2.23876       -0.00172
H          1.98222       -1.00382        2.92866
H          2.32152       -2.72813        2.59817
H          4.61996       -0.54742        2.22247
H          5.16972       -0.93275        0.56829
