33

N          3.39540       -0.88360       -4.93097
C          2.88410        0.49476       -4.82843
C          3.21699        1.12532       -3.47274
C          4.70521        1.40248       -3.18594
C          4.93772        2.11219       -1.84613
In         7.04289        2.75835       -1.38336
C          8.18120        0.76625       -0.97387
F          7.38048       -0.28345       -0.51212
F          8.79892        0.22682       -2.10611
F          9.21560        0.82236       -0.03700
C          8.06616        3.51583       -3.23995
C          7.31877        4.62082       -3.98977
C          8.00998        5.09049       -5.27437
N          7.23958        6.16329       -5.94418
H          3.06599       -1.32491       -5.79061
H          3.02785       -1.44234       -4.15792
H          1.78711        0.56237       -4.99168
H          3.35938        1.08449       -5.63135
H          2.80640        0.48280       -2.67037
H          2.66417        2.07807       -3.39847
H          5.10363        2.01068       -4.01916
H          5.26476        0.45441       -3.22153
H          4.61343        1.45885       -1.01809
H          4.30310        3.01494       -1.79082
H          7.18766        3.79015        0.05524
H          8.20579        2.63939       -3.89543
H          9.07670        3.86220       -2.96483
H          7.16626        5.50205       -3.34332
H          6.30396        4.27032       -4.26098
H          8.18281        4.20767       -5.92303
H          9.00385        5.49752       -5.02303
H          6.29231        5.82234       -6.12560
H          7.64306        6.36964       -6.86016
