12

Cl         1.13857       -0.14143        0.20066
N          2.91984        0.07057        0.04101
C          3.11718        1.19356       -0.83440
C          4.63867        1.30331       -0.91477
C          5.21946        2.39509       -1.76887
O          4.65342        3.24397       -2.42470
O          6.62141        2.39650       -1.78035
H          2.71008        2.17358       -0.47125
H          2.71435        1.07939       -1.87496
H          5.02402        0.32242       -1.26009
H          5.02029        1.40444        0.12151
H          6.91013        1.66210       -1.21120
