20

O          2.82133       -0.79099       -1.07946
C          2.21366       -0.20442       -0.00300
O          1.09800       -0.55265        0.32567
C          3.03494        0.87679        0.69659
C          4.49584        1.04176        0.26144
Al         5.61764        2.39854        1.25342
C          5.20827        4.34904        0.82507
C          3.77096        4.71217        0.83060
O          3.10822        5.05227       -0.13758
O          3.13745        4.61747        2.05290
Br         5.04821        2.26253        3.61158
H          3.71010       -0.37365       -1.13391
H          2.96489        0.66488        1.77487
H          2.47153        1.81508        0.56130
H          4.56325        1.35254       -0.80023
H          5.04462        0.08694        0.36156
H          7.20193        2.10916        1.08282
H          5.65006        4.62006       -0.14269
H          5.74678        4.87666        1.62873
H          3.72443        4.13674        2.68142
