20

N          0.53499        0.61120        0.43244
C          1.79979       -0.04251        0.01741
N          2.60073       -0.43687        1.13984
C          3.89139       -0.39919        1.18543
C          4.86589       -1.29992        0.32201
C          4.91813       -1.17168       -1.24515
C          5.37554        0.17383       -1.92015
F          6.51175        0.65268       -1.38924
F          5.62594       -0.08815       -3.24086
F          4.42876        1.11933       -1.88896
F          5.81593       -2.11791       -1.68794
F          3.70875       -1.48800       -1.78879
F          6.17484       -1.20025        0.73236
F          4.50357       -2.62093        0.52551
F          4.57541        0.99874        0.83038
F          4.38302       -0.62309        2.49221
H          0.81172        1.40381        1.02136
H          0.09039       -0.03016        1.09736
H          2.31046        0.67702       -0.64583
H          1.49659       -0.90665       -0.60790
