24

C          1.07531       -0.03376        0.07810
C          2.59574        0.06922       -0.07480
C          3.03673        1.06308       -1.15429
C          4.55468        1.15761       -1.32586
C          4.99420        2.16509       -2.39541
N          6.44110        2.16902       -2.48564
S          7.05656        3.14549       -3.55124
O          6.70293        2.86351       -4.96755
O          6.97924        4.59473       -3.23035
C          8.80571        2.71169       -3.38617
H          0.78724       -0.75068        0.86194
H          0.60504       -0.36016       -0.86241
H          0.63708        0.94173        0.34005
H          3.01010       -0.92644       -0.30933
H          3.04424        0.36154        0.89028
H          2.63129        2.06213       -0.91120
H          2.57535        0.77797       -2.11724
H          4.96605        0.16789       -1.59026
H          5.02584        1.43932       -0.36812
H          4.57313        3.16041       -2.12079
H          4.50457        1.88583       -3.35699
H          8.93471        1.65481       -3.64373
H          9.12110        2.90133       -2.35438
H          9.35523        3.35396       -4.08519
