60

S          4.11099       -2.86807       -1.95256
C          3.66478       -1.66316       -0.74412
C          3.38490       -0.34804       -1.29861
C          2.45331       -0.19172       -2.56476
C          1.02921       -0.87392       -2.51460
C          0.07664       -0.55307       -1.30913
F         -0.09196        0.77514       -1.14868
F         -1.14455       -1.09065       -1.58084
F          0.50768       -1.08453       -0.16031
F          0.35640       -0.45619       -3.63870
F          1.13536       -2.22370       -2.58671
F          2.20819        1.14973       -2.75735
F          3.03127       -0.64122       -3.71213
F          2.81552        0.54096       -0.38902
F          4.57833        0.38514       -1.73721
C          3.86323       -1.95657        0.66007
C          3.47499       -1.11475        1.75366
C          3.62775       -1.50385        3.07838
C          4.18732       -2.74428        3.46138
C          4.60676       -3.56542        2.38956
C          4.46238       -3.19226        1.06062
Si         4.24462       -3.29820        5.23591
C          2.58592       -4.08741        5.76595
C          2.10724       -5.24703        4.88029
C          0.77318       -5.85940        5.32507
C          0.28269       -6.99406        4.42025
C         -1.01076       -7.65417        4.90713
C         -1.53229       -8.75567        3.97994
C         -2.79491       -9.45165        4.49758
C         -3.32782      -10.52647        3.54703
C          5.62018       -4.58029        5.50423
C          4.55225       -1.83865        6.41034
H          5.44850       -2.61416       -2.13319
H          3.03231       -0.14289        1.56217
H          3.29039       -0.80117        3.84811
H          5.07366       -4.53403        2.59701
H          4.80673       -3.86897        0.27829
H          1.82502       -3.28646        5.76111
H          2.66858       -4.42157        6.81701
H          2.87113       -6.04474        4.86054
H          2.01861       -4.89399        3.83936
H          0.00597       -5.06571        5.36244
H          0.87246       -6.23338        6.36051
H          1.07227       -7.76224        4.33777
H          0.13448       -6.60436        3.39828
H         -1.79164       -6.88210        5.02656
H         -0.84599       -8.07452        5.91570
H         -0.74023       -9.51026        3.82634
H         -1.73569       -8.32618        2.98327
H         -3.57860       -8.69539        4.67458
H         -2.58172       -9.90161        5.48243
H         -3.58858      -10.09604        2.56859
H         -4.22776      -11.01481        3.94778
H         -2.57413      -11.30894        3.37071
H          5.48214       -5.46790        4.87046
H          5.64274       -4.91811        6.55145
H          6.60344       -4.15190        5.26260
H          3.78336       -1.06187        6.28821
H          5.52786       -1.37224        6.21244
H          4.53371       -2.16330        7.46180
