59

N          0.86981       -0.20960       -0.24459
C          2.25849       -0.33090        0.24685
C          2.81238        1.01720        0.70367
C          4.24026        0.92235        1.26536
C          4.88678        2.24657        1.68285
Ga         6.68850        1.91713        2.57978
C          7.80048        0.82908        1.25259
C          8.09953       -0.52093        1.52394
C          8.80007       -1.33404        0.63204
C          9.23698       -0.80716       -0.59212
C          8.95404        0.53371       -0.90248
C          8.24639        1.31890        0.00805
C         10.00364       -1.65290       -1.55821
C         11.56174       -1.41728       -1.64460
C         12.45680       -1.56600       -0.35276
C         12.60583       -2.94117        0.41310
C         13.15701       -4.23813       -0.30647
C         14.58045       -4.20003       -0.97713
F         15.50802       -3.70688       -0.13560
F         14.92894       -5.46779       -1.29425
F         14.58338       -3.47479       -2.10503
F         13.22607       -5.18710        0.67308
F         12.27305       -4.65930       -1.24029
F         13.45514       -2.68564        1.45095
F         11.40599       -3.29079        0.93559
F         13.72593       -1.20355       -0.72427
F         12.02612       -0.67854        0.57399
F         12.08619       -2.24421       -2.59966
F         11.76955       -0.13434       -2.06165
F          9.83699       -3.00073       -1.31923
F          9.58028       -1.43566       -2.86101
C          7.68645        3.58400        3.25657
C          7.46227        3.77138        4.76480
C          5.99906        3.98185        5.16723
C          9.18622        3.52272        2.94575
H          0.56211       -1.09648       -0.64857
H          0.84501        0.46961       -1.00888
H          2.95072       -0.76220       -0.50484
H          2.24955       -1.03031        1.09974
H          2.13566        1.44554        1.46264
H          2.80279        1.72114       -0.15043
H          4.88209        0.42583        0.51492
H          4.22653        0.23518        2.13173
H          4.23563        2.78480        2.39406
H          5.00701        2.90715        0.80551
H          6.46318        0.89873        3.82876
H          7.76174       -0.95348        2.47039
H          8.99973       -2.37746        0.87639
H          9.27582        0.95028       -1.85857
H          8.02884        2.35476       -0.27180
H          7.25680        4.46329        2.73887
H          8.06444        4.62885        5.13785
H          7.84885        2.88328        5.29821
H          5.56247        4.84598        4.64150
H          5.89611        4.15931        6.24948
H          5.39418        3.09909        4.91261
H          9.64828        2.61535        3.37052
H          9.73976        4.38892        3.36422
H          9.38707        3.49582        1.86433
