41

C          1.33444       -0.84178       -0.83786
C          2.79595       -0.42978       -0.63545
C          2.96807        0.92991        0.05271
C          4.43267        1.24392        0.40858
C          4.79351        2.62432        0.90257
C          4.22228        2.93756        2.25877
C          2.75719        3.42554        2.32380
C          2.42510        3.94555        3.73213
C          0.96837        4.10771        4.09230
C          0.12181        5.10461        3.23818
F         -0.04999        4.66531        1.97560
F         -1.11086        5.28277        3.77855
F          0.72394        6.31849        3.18610
F          0.29597        2.90452        4.05039
F          0.85334        4.56711        5.40187
C          6.29971        2.73801        0.90552
C          6.91166        4.12815        1.15840
C          8.43285        4.08705        1.02937
S          9.34242        5.56065        1.64992
H          1.24519       -1.81814       -1.34044
H          0.78962       -0.10283       -1.44589
H          0.80993       -0.91596        0.12781
H          3.31541       -0.41220       -1.61009
H          3.31195       -1.19885       -0.03413
H          2.35017        0.92922        0.96708
H          2.57200        1.73664       -0.58991
H          5.04277        1.02367       -0.48885
H          4.73653        0.44851        1.16682
H          4.83034        3.72599        2.73926
H          4.29072        2.04916        2.96891
H          2.06700        2.61195        2.06269
H          2.62213        4.21312        1.56777
H          2.92146        4.91166        3.91381
H          2.81923        3.23789        4.48198
H          6.68098        2.37269       -0.06704
H          6.78559        2.04718        1.67306
H          6.64910        4.49166        2.16442
H          6.48220        4.84825        0.44067
H          8.74111        3.90081       -0.00959
H          8.84005        3.26643        1.64116
H          8.67958        6.48705        0.91753
