43

C          7.42026       -0.31941        2.48053
S          6.55776        1.14863        1.85129
C          6.13319        0.51840        0.18006
C          5.17291        1.44647       -0.57047
B          5.70390        2.98690       -0.82293
C          4.57662        3.92351       -1.56992
C          3.52078        3.28945       -2.26890
C          2.54839        3.97721       -2.99719
C          2.58406        5.37301       -3.06387
C          3.59624        6.04460       -2.38604
C          4.57191        5.35038       -1.64441
C          5.56719        6.26137       -0.95868
O          5.66906        7.45077       -1.23711
O          6.33641        5.73859        0.00939
C          7.18316        3.00412       -1.57534
C          7.27284        2.37057       -2.97944
C          6.77538        3.31778       -4.08330
C          6.88955        2.73866       -5.47365
C          6.45026        3.69881       -6.62175
F          5.15960        4.06854       -6.47934
F          7.21143        4.81933       -6.62959
F          6.58018        3.10703       -7.83502
F          8.18975        2.37210       -5.77526
F          6.12210        1.60040       -5.61870
H          7.75754       -0.09103        3.50034
H          8.30163       -0.55896        1.86688
H          6.75706       -1.19745        2.51500
H          5.70014       -0.48602        0.32939
H          7.07693        0.39574       -0.37679
H          4.20773        1.45718       -0.03273
H          4.96661        0.93468       -1.53140
H          5.88624        3.42281        0.34024
H          3.46192        2.19953       -2.24552
H          1.76326        3.42082       -3.51687
H          1.83402        5.92781       -3.63160
H          3.66425        7.13334       -2.40838
H          6.14221        4.75012        0.10848
H          7.88775        2.46126       -0.92054
H          7.59463        4.02766       -1.63337
H          6.68632        1.43777       -3.01912
H          8.31374        2.09047       -3.21354
H          7.35546        4.25377       -4.06427
H          5.72330        3.59056       -3.91839
