32

C          0.71028       -0.38914        0.34257
C          2.22627       -0.24264        0.18267
C          2.79307       -1.01392       -1.01409
C          4.31637       -0.89083       -1.17095
C          4.90061       -1.66374       -2.36501
Al         6.89391       -1.58918       -2.56667
C          7.66226        0.28144       -2.99771
C          7.39708        1.31577       -1.98147
O          6.63505        2.26422       -2.06634
O          8.07874        1.14706       -0.77579
C          7.99679       -2.31513       -0.97859
C          7.91384       -3.79922       -0.87298
O          7.62395       -4.44390        0.12307
O          8.18146       -4.47534       -2.04453
H          0.33163        0.17608        1.20762
H          0.42731       -1.44395        0.48321
H          0.18055       -0.02497       -0.55148
H          2.72802       -0.58732        1.10306
H          2.48643        0.82448        0.07983
H          2.30546       -0.66037       -1.94114
H          2.52615       -2.08259       -0.92085
H          4.78819       -1.23956       -0.23448
H          4.57531        0.17928       -1.25270
H          4.43361       -1.29860       -3.29967
H          4.60726       -2.72818       -2.29075
H          7.46536       -2.57596       -3.77944
H          7.27420        0.60973       -3.96980
H          8.74183        0.07914       -3.08756
H          8.51786        0.27786       -0.80415
H          7.79951       -1.87660        0.00850
H          9.02365       -2.05297       -1.29338
H          8.10525       -3.81896       -2.78720
