9

F          1.04664        0.00552       -0.02364
C          2.41354       -0.10102       -0.02866
S          2.98124       -1.84619        0.49640
O          2.37579       -2.65176       -0.57811
O          4.43458       -1.67728        0.47499
N          2.44391       -2.06052        1.93695
F          2.81948        0.24182       -1.28750
F          2.87715        0.87323        0.80489
H          1.48316       -2.40751        1.83938
