32

F          0.83091       -0.06893       -0.00432
C          2.18717       -0.01439       -0.10877
C          2.85461       -1.34526        0.09547
C          2.15537       -2.51004       -0.20685
C          2.75111       -3.80005       -0.09916
C          4.10161       -3.80500        0.35280
C          4.77608       -2.63121        0.67833
C          4.17631       -1.37331        0.55396
C          6.17710       -2.72217        1.21399
F          6.20340       -2.88229        2.57824
F          6.88068       -3.77062        0.70164
F          6.91489       -1.59890        0.95960
C          2.02458       -5.01039       -0.43185
C          0.97425       -4.99421       -1.45929
C          1.39422       -4.53965       -2.90942
F          2.37303       -5.34790       -3.38657
F          0.34992       -4.62473       -3.77902
F          1.85443       -3.26877       -2.96678
F          0.40121       -6.22790       -1.67258
F         -0.14241       -4.13285       -1.16557
C          2.29964       -6.27644        0.28545
C          3.18737       -7.38007       -0.40973
F          4.41544       -6.87978       -0.71034
F          3.38781       -8.46051        0.39607
F          2.64252       -7.83495       -1.55697
F          2.96868       -6.04263        1.48209
F          1.13951       -6.97225        0.64953
F          2.45116        0.51381       -1.34868
F          2.60750        0.92896        0.79030
H          1.11647       -2.42832       -0.51329
H          4.64107       -4.74418        0.42991
H          4.71317       -0.46097        0.80119
