33

N          1.15499        0.21673       -1.04191
N          1.51408       -0.42376        0.18812
C          2.41636       -1.38344        0.05116
C          3.02006       -1.83621       -1.19208
C          3.89309       -2.90524       -1.22596
C          4.25853       -3.61533       -0.05511
C          3.71269       -3.15908        1.18433
C          2.84568       -2.09676        1.23661
C          5.17328       -4.75689       -0.12214
C          6.70065       -4.48838       -0.40576
C          7.52322       -3.56994        0.57502
C          7.78451       -3.98899        2.08051
C          8.49377       -5.36433        2.37368
C          9.07952       -5.48912        3.83264
F          8.15971       -5.17783        4.76454
F          9.46537       -6.77065        4.03035
F         10.15867       -4.70392        4.00842
F          7.61154       -6.37849        2.22169
F          9.54099       -5.55179        1.52587
F          8.60354       -3.01060        2.58846
F          6.62420       -3.95339        2.77280
F          8.76395       -3.41262        0.00936
F          6.94599       -2.34629        0.64062
F          7.40975       -5.67237       -0.49261
F          6.80796       -3.87809       -1.62481
F          5.15903       -5.52114        1.03953
F          4.85076       -5.64611       -1.17932
H          0.27029        0.68738       -0.84457
H          0.94365       -0.48822       -1.76796
H          2.80988       -1.30244       -2.11925
H          4.31232       -3.21460       -2.18650
H          3.98114       -3.67513        2.10738
H          2.42910       -1.77005        2.19202
