32

C          1.08857       -0.06084        0.10313
S          2.85915       -0.44892        0.07396
C          3.25892        0.19704       -1.58944
C          4.77404        0.08505       -1.80503
C          5.27361        0.72586       -3.11697
S          4.84613       -0.48393       -4.49492
O          5.67173       -1.67837       -4.34537
O          3.40004       -0.64221       -4.57170
C          5.33346        0.25313       -6.24284
C          5.84275       -0.82547       -7.28364
C          4.89804       -1.99611       -7.76810
C          3.52376       -1.64223       -8.44718
F          3.67273       -0.73162       -9.42935
F          3.03058       -2.77733       -9.00565
F          2.62921       -1.19654       -7.56049
F          5.62140       -2.67803       -8.71112
F          4.63269       -2.84201       -6.74849
F          6.17410       -0.12066       -8.41522
F          6.97550       -1.41067       -6.82714
F          4.26491        0.84458       -6.80914
F          6.34549        1.13929       -6.12771
C          4.70606        2.19065       -3.38150
O          4.27272        2.35959       -4.54179
O          4.75611        2.92869       -2.37865
I          7.46770        0.82188       -2.97180
H          0.69722       -0.40660        1.06851
H          0.55541       -0.58150       -0.70450
H          0.92115        1.02149        0.01523
H          2.96581        1.25500       -1.63553
H          2.69795       -0.37519       -2.33736
H          5.11360       -0.95994       -1.73197
H          5.27547        0.65884       -1.01227
