72

C         19.62263       -4.00188        4.08794
C         18.27071       -3.40751        3.68632
C         17.11912       -4.41597        3.75350
C         15.77130       -3.83717        3.31420
C         14.60792       -4.83042        3.39851
C         13.28230       -4.25517        2.89157
C         12.10046       -5.22944        2.97264
C         10.79825       -4.65022        2.39950
Si         9.26666       -5.77751        2.47169
C          8.75282       -6.10860        4.25009
C          8.68006       -5.05442        5.18451
C          8.20822       -5.26678        6.48303
C          7.78921       -6.53463        6.91096
C          7.87491       -7.58755        5.99152
C          8.34496       -7.38418        4.69041
P          7.16263       -6.84915        8.71149
C          5.29214       -6.93704        8.15912
C          4.80265       -5.81816        7.46734
C          3.49291       -5.73915        6.99300
C          2.62155       -6.81638        7.18965
C          3.07727       -7.94370        7.86647
C          4.39314       -8.01025        8.36822
C          4.68754       -9.28019        9.13541
O          4.12853      -10.33719        8.88409
O          5.53330       -9.20673       10.18277
C          8.97501       -6.78850        9.48149
C          9.24718       -5.50342       10.24789
C         10.53755       -5.40474       11.05505
O         10.89908       -4.41690       11.66105
O         11.31141       -6.53160       11.06907
C          7.86597       -4.87743        1.56469
C          9.62994       -7.39987        1.56357
H         20.42638       -3.25349        4.03741
H         19.90131       -4.83599        3.42619
H         19.59512       -4.39298        5.11602
H         18.33624       -3.00078        2.66252
H         18.03655       -2.54873        4.33802
H         17.03454       -4.80343        4.78404
H         17.36368       -5.28885        3.12195
H         15.85806       -3.46697        2.27679
H         15.53671       -2.95185        3.93133
H         14.48799       -5.16682        4.44293
H         14.85797       -5.73497        2.81566
H         13.40733       -3.92720        1.84370
H         13.03575       -3.34403        3.46500
H         11.94378       -5.52558        4.02349
H         12.36452       -6.15639        2.43413
H         10.95175       -4.36449        1.34283
H         10.55020       -3.71047        2.92432
H          8.99107       -4.04497        4.89376
H          8.15302       -4.42457        7.18201
H          7.55912       -8.58932        6.30338
H          8.38622       -8.23535        4.00391
H          6.69014       -7.07794       10.16746
H          7.31536       -8.29593        8.51201
H          6.99005       -5.39534        8.92290
H          5.48507       -4.98014        7.29575
H          3.15363       -4.84529        6.46309
H          1.59496       -6.77626        6.81954
H          2.42504       -8.80287        8.03223
H          5.96336       -8.29666       10.22985
H          9.70623       -6.95056        8.67255
H          8.96915       -7.66868       10.14851
H          8.42405       -5.30740       10.95876
H          9.24789       -4.63265        9.57340
H         10.83977       -7.18996       10.51405
H          7.63205       -3.92358        2.05912
H          6.94860       -5.48325        1.56906
H          8.13047       -4.66313        0.51822
H         10.42800       -7.97347        2.05552
H          9.94454       -7.20042        0.52836
H          8.73749       -8.04053        1.52116
