26

C          0.92783        1.83109       -1.91547
C          2.39294        1.51429       -2.25532
C          3.27815        1.15093       -1.05697
Al         5.22712        0.77280       -1.52958
C          6.17513        0.12479        0.16414
C          7.65159       -0.21260       -0.06548
C          8.50258       -0.71020        1.10233
O          9.65414       -1.14167        0.97735
N          7.90095       -0.62668        2.33031
N          6.15918        2.26912       -2.17904
H          0.32898        2.08108       -2.80955
H          0.86448        2.68308       -1.21940
H          0.44823        0.97203       -1.41901
H          2.82889        2.38194       -2.78337
H          2.41611        0.68858       -2.98911
H          2.84780        0.26793       -0.54274
H          3.23394        1.97263       -0.31285
H          5.32069       -0.39120       -2.70058
H          5.62851       -0.75560        0.55340
H          6.07350        0.92815        0.92072
H          8.17993        0.66755       -0.47356
H          7.76171       -0.97962       -0.85105
H          6.91518       -0.38726        2.36874
H          8.37069       -1.03003        3.13068
H          5.97647        3.19712       -1.79849
H          6.23859        2.37353       -3.18925
