39

C          0.91226       -4.15659       -2.84682
O          2.30842       -3.99146       -2.95607
C          2.98674       -5.23768       -3.09215
C          4.48243       -5.01991       -3.21108
O          5.02983       -4.66132       -1.96489
C          6.47520       -4.46832       -2.04438
C          7.05229       -4.06007       -0.72541
Sb         9.31549       -3.70534       -0.89150
C          9.41626       -3.34695        1.37878
C          8.55602       -3.89542        2.34054
C          8.69254       -3.59922        3.70497
C          9.70324       -2.74269        4.16219
C         10.57860       -2.20082        3.20666
C         10.43037       -2.50106        1.84860
C          9.84639       -2.40616        5.62869
N          9.62757       -5.85587       -0.62055
H          0.47374       -3.15879       -2.71087
H          0.63678       -4.78852       -1.97929
H          0.47927       -4.61726       -3.75870
H          2.62232       -5.76214       -4.00092
H          2.77354       -5.88256       -2.21636
H          4.67725       -4.23859       -3.97642
H          4.93635       -5.96339       -3.58809
H          6.67691       -3.70340       -2.82046
H          6.92903       -5.41557       -2.39869
H          6.88256       -4.83791        0.03269
H          6.62778       -3.11150       -0.36767
H          9.26037       -3.96795       -2.65598
H          9.06327       -1.93952       -1.10676
H         11.09716       -3.50451       -0.90217
H          7.75142       -4.57199        2.03703
H          7.99927       -4.03941        4.43098
H         11.38334       -1.53305        3.53479
H         11.13243       -2.06599        1.12599
H          9.07466       -2.90816        6.22966
H          9.75410       -1.32247        5.80600
H         10.82860       -2.71136        6.02426
H          8.83234       -6.21038       -0.07553
H         10.41729       -5.92319        0.03261
