59

O          4.03843        0.35722        1.70557
In         4.47683       -1.28460        0.44744
C          4.88585       -0.24645       -1.50963
C          4.94782        1.16095       -1.58955
C          5.17200        1.82810       -2.79950
C          5.34216        1.11946       -4.00956
C          5.25840       -0.28612       -3.94319
C          5.03405       -0.94050       -2.72584
Si         5.79658        2.00426       -5.59576
C          7.55086        2.74078       -5.38915
C          8.56707        1.70009       -4.90059
C          9.95870        2.27160       -4.70737
C         11.03082        1.32233       -4.05886
C         11.38031       -0.06013       -4.73136
C         12.00318       -0.13805       -6.18496
C         13.35970        0.61230       -6.45954
C         14.09852        0.15072       -7.77358
F         13.26892        0.18004       -8.83366
F         15.12136        0.99909       -8.00770
F         14.60309       -1.08864       -7.64781
F         13.12412        1.93955       -6.58329
F         14.22246        0.40619       -5.43072
F         12.22199       -1.46773       -6.40969
F         11.08077        0.29167       -7.08179
F         12.24857       -0.68963       -3.89374
F         10.24264       -0.80674       -4.79149
F         12.20533        2.00787       -3.92622
F         10.58873        1.00277       -2.81031
F         10.48473        2.72266       -5.90147
F          9.92691        3.36155       -3.86649
C          5.82770        0.80976       -7.06641
C          4.64203        3.44694       -6.00538
C          2.52292       -2.35879        0.13146
C          1.35335       -1.42840       -0.20316
C          0.06687       -2.20693       -0.49815
S         -1.40226       -1.19223       -0.97163
H          4.65570        0.34898        2.45089
H          5.81629       -2.22969        1.13031
H          4.81320        1.74639       -0.67377
H          5.21670        2.92417       -2.80004
H          5.37123       -0.88249       -4.85477
H          4.97645       -2.03495       -2.73651
H          7.48745        3.56604       -4.66317
H          7.87844        3.18143       -6.34464
H          8.64890        0.86790       -5.61426
H          8.24143        1.26726       -3.94265
H          6.52718       -0.02381       -6.91050
H          6.13121        1.33559       -7.98389
H          4.83318        0.37513       -7.24152
H          4.58200        4.15978       -5.17090
H          3.62370        3.08627       -6.20767
H          4.99280        3.99433       -6.89338
H          2.29428       -2.95306        1.03206
H          2.67939       -3.07796       -0.69218
H          1.58751       -0.79502       -1.07456
H          1.16919       -0.73361        0.63392
H         -0.21297       -2.84479        0.35281
H          0.20909       -2.86767       -1.36770
H         -1.41466       -0.41164        0.13406
