8

F          1.14181       -0.06672       -0.07937
S          2.79912        0.11136       -0.09344
O          3.08330        0.70474       -1.39089
O          3.08570        0.87854        1.10891
S          3.45012       -2.13834        0.06444
O          2.84432       -2.51193        1.33702
O          2.84626       -2.68482       -1.14502
O          4.89626       -1.94044        0.05174
