49

N          2.02148       -0.02181        4.89869
C          3.42927       -0.05628        4.74762
N          4.24311       -0.87454        5.32563
N          3.88101        0.93311        3.90309
C          5.30739        1.18924        3.70879
C          5.50096        2.23794        2.61496
C          6.96890        2.60295        2.35827
C          7.13956        3.65715        1.25801
Ga         8.99301        4.26092        0.77701
S         10.28898        2.15981        0.31748
O          9.37542        1.01802        0.09629
O         11.33175        2.40423       -0.69881
C         11.44640        1.51761        1.79283
C         10.76623        1.06619        3.10575
F          9.96278        0.00458        2.91147
F         11.69035        0.71345        4.04510
F         10.02980        2.07598        3.62515
F         12.15464        0.46116        1.30621
F         12.32669        2.51487        2.10929
C         10.01391        5.23561        2.22035
C          9.40381        5.56327        3.44476
C         10.08320        6.28376        4.43499
C         11.40375        6.69692        4.23179
C         12.02458        6.38300        3.02237
C         11.33673        5.66656        2.03081
C         13.45081        6.79755        2.77296
F         13.93923        7.62689        3.74229
F         14.29796        5.73032        2.71561
F         13.59221        7.46152        1.58772
C          9.39798        6.67287        5.71558
F          8.27849        5.94378        5.96442
F         10.21045        6.53502        6.80571
F          9.00534        7.98953        5.70805
H          1.65765       -0.86217        5.33780
H          1.52547        0.17629        4.03126
H          3.72846       -1.60764        5.82194
H          3.29199        1.75988        3.85858
H          5.78747        0.23906        3.43623
H          5.78052        1.51841        4.65198
H          4.94661        3.15596        2.89002
H          5.04755        1.87075        1.67889
H          7.51934        1.69084        2.07870
H          7.41868        2.95137        3.30353
H          6.57660        4.57235        1.52296
H          6.68784        3.28794        0.32271
H          9.21821        4.88154       -0.65587
H          8.37663        5.24958        3.64101
H         11.93795        7.25159        5.00181
H         11.85156        5.43646        1.09468
