65

N          5.64743        2.12702       -1.52277
C          4.75700        2.82752       -0.57894
Ta         3.45841        2.06121       -2.16186
C          1.87837        2.99295       -3.39896
C          1.43355        4.31218       -3.14838
C          0.36166        4.88466       -3.83157
C         -0.34518        4.17188       -4.82699
C          0.08814        2.85647       -5.08741
C          1.16650        2.29288       -4.39723
Si        -1.65899        5.02649       -5.84548
C         -0.80913        6.36881       -6.90378
C          0.39347        5.84478       -7.70382
C          1.22209        6.93158       -8.39836
C          2.45497        6.37228       -9.11521
C          3.33380        7.43780       -9.77629
C          4.57737        6.86119      -10.45974
C          5.47211        7.91709      -11.11572
C          6.71167        7.32288      -11.78943
C         -2.55246        3.79790       -6.98182
C         -2.95499        5.87608       -4.74945
C          3.65331       -0.17141       -2.01415
C          3.50802       -0.69802       -0.57819
C          3.45263       -2.21188       -0.34217
O          3.49671       -2.72113        0.78165
N          3.33335       -2.96859       -1.47250
H          6.20442        1.35477       -1.16293
H          6.17105        2.72919       -2.14672
H          5.04231        3.86143       -0.36171
H          4.65775        2.24751        0.35167
H          4.27380        3.44814       -3.01551
H          1.90546        1.87651       -1.15406
H          4.08794        1.54581       -3.77744
H          1.94925        4.91829       -2.39457
H          0.07376        5.91554       -3.59158
H         -0.41705        2.25998       -5.85480
H          1.47380        1.27455       -4.65819
H         -0.46724        7.15578       -6.20744
H         -1.54406        6.85209       -7.57234
H          0.04973        5.11813       -8.46136
H          1.05336        5.27843       -7.02597
H          1.54507        7.67064       -7.64365
H          0.59042        7.48485       -9.11701
H          2.13322        5.64100       -9.87814
H          3.06053        5.80247       -8.38958
H          3.64677        8.17370       -9.01446
H          2.73738        8.00182      -10.51600
H          4.26635        6.12444      -11.22191
H          5.16789        6.29510       -9.71823
H          5.78309        8.65135      -10.35323
H          4.88282        8.48257      -11.85795
H          7.33487        6.78035      -11.06281
H          7.33721        8.10042      -12.25107
H          6.43025        6.60838      -12.57785
H         -1.85940        3.31138       -7.68258
H         -3.32626        4.30911       -7.57398
H         -3.04305        3.00673       -6.39652
H         -2.47743        6.56738       -4.04004
H         -3.51295        5.13374       -4.16073
H         -3.67706        6.45185       -5.34812
H          4.55367       -0.57899       -2.49863
H          2.77718       -0.47482       -2.62560
H          2.59253       -0.29182       -0.11317
H          4.32869       -0.34828        0.07326
H          3.33319       -2.51310       -2.37867
H          3.27827       -3.97516       -1.38945
