32

S          1.87474        0.77072        0.91839
N          2.40680       -0.34176       -0.29078
C          3.02908        0.22542       -1.32471
C          3.52106       -0.63821       -2.37496
C          4.19782       -0.15254       -3.46940
C          4.44010        1.23995       -3.63243
C          3.95437        2.11024       -2.62835
C          3.27518        1.63602       -1.52637
C          5.22487        1.76796       -4.75496
C          6.71371        2.20829       -4.46774
C          7.73753        1.15727       -3.88681
C          8.17891       -0.12168       -4.70340
C          8.86130       -0.00195       -6.12639
C         10.18957        0.82952       -6.27730
F         11.10824        0.46100       -5.36349
F         10.70032        0.58155       -7.50753
F          9.97863        2.14842       -6.17690
F          9.18458       -1.28463       -6.47740
F          7.97548        0.46829       -7.03256
F          9.08041       -0.77089       -3.90400
F          7.11548       -0.94147       -4.87094
F          8.89978        1.84783       -3.63229
F          7.27358        0.68959       -2.70545
F          7.29496        2.73466       -5.60076
F          6.68984        3.21091       -3.53905
F          5.30878        0.87922       -5.81876
F          4.67478        2.95388       -5.27952
H          1.33547       -0.18691        1.70887
H          3.33625       -1.70919       -2.27121
H          4.54731       -0.84892       -4.23263
H          4.11099        3.18586       -2.73271
H          2.90565        2.34736       -0.78518
