33

N          3.12818       -0.31311       -1.44823
C          2.71367        0.06354       -0.09548
C          3.34263       -0.85146        0.98312
S          2.98701       -0.17048        2.69902
O          1.63902       -0.52072        3.11495
O          4.11320       -0.41945        3.57381
C          2.91260        1.77223        2.57481
C          2.94244        2.42854        3.99971
F          2.01817        1.89331        4.81662
F          4.15058        2.32041        4.56914
F          2.66221        3.75507        3.86856
F          3.93040        2.30290        1.86978
F          1.73423        2.12576        1.98851
S          2.39958       -2.51392        0.73964
O          0.97652       -2.33981        0.99660
O          2.80872       -3.04809       -0.55072
C          3.04451       -3.82650        2.04938
C          1.86036       -4.70755        2.58332
C          2.30100       -5.93838        3.46135
F          3.06515       -5.55436        4.50074
F          1.19151       -6.53993        3.95537
F          2.97739       -6.85212        2.74101
F          1.03381       -3.96163        3.35318
F          1.16484       -5.21929        1.52908
F          3.92312       -4.64058        1.43923
F          3.62203       -3.20432        3.09306
C          4.94731       -1.02695        0.86616
O          5.50970        0.07797        0.78604
O          5.33406       -2.20669        0.90114
H          2.75975        0.36929       -2.10958
H          2.77423       -1.23488       -1.70403
H          1.61846        0.10714        0.06115
H          3.13256        1.06053        0.08823
