54

O          2.55852       -0.60751       -1.10716
C          1.94528       -0.20191        0.13273
C          2.38508       -0.74380        1.32081
C          1.88262       -0.33990        2.62394
C          2.38929       -0.85222        3.79423
C          3.43529       -1.83268        3.84256
C          3.90846       -2.26085        2.57188
C          3.42253       -1.76594        1.37620
Si         4.02681       -2.50857        5.44173
C          2.56065       -3.30100        6.40614
C          1.87905       -4.41043        5.60023
C          0.72826       -5.14066        6.26851
C         -0.60912       -4.37340        6.57526
C         -1.37003       -3.62547        5.41465
C         -1.94650       -4.41202        4.16575
C         -2.98953       -5.56477        4.42129
C         -3.79969       -5.99974        3.14058
F         -2.97782       -6.27576        2.11287
F         -4.49848       -7.11756        3.44012
F         -4.67389       -5.05209        2.76184
F         -2.34694       -6.66762        4.87412
F         -3.90481       -5.17389        5.34824
F         -2.57199       -3.46620        3.40601
F         -0.91456       -4.91759        3.44925
F         -2.42388       -2.98272        5.99777
F         -0.53950       -2.68431        4.89908
F         -1.49524       -5.25092        7.13779
F         -0.34564       -3.40969        7.50494
F          0.37100       -6.24041        5.50875
F          1.12040       -5.64476        7.49499
C          5.36111       -3.84089        5.19892
C          4.72032       -1.20104        6.63802
C          0.83442        0.75941       -0.11440
C          1.22486        2.06908       -0.81491
O          0.70963        3.14852       -0.59139
O          2.18654        1.94192       -1.76354
H          3.46268       -0.88778       -0.87829
H          1.09213        0.41160        2.67983
H          1.96072       -0.47836        4.73202
H          4.68369       -3.03344        2.52176
H          3.80141       -2.21234        0.45102
H          1.84986       -2.48855        6.62175
H          2.90469       -3.68748        7.37879
H          2.59615       -5.21723        5.37507
H          1.53864       -4.02522        4.62757
H          5.01239       -4.66650        4.56195
H          5.67103       -4.26576        6.16552
H          6.25342       -3.41221        4.72001
H          3.99160       -0.39117        6.79061
H          5.63082       -0.74607        6.22201
H          4.96598       -1.62641        7.62379
H          0.33722        1.03028        0.82261
H          0.04426        0.31159       -0.76373
H          2.49126        0.99027       -1.73407
