17

F          1.50860        0.91993        0.41256
Ga         2.81680       -0.29044       -0.00719
C          4.01410       -0.54832        1.67301
C          4.29559        0.67176        2.57140
F          4.80781        1.69365        1.83719
F          3.16349        1.11105        3.16639
F          5.19510        0.41159        3.56833
F          3.49478       -1.52361        2.52773
F          5.26825       -1.02374        1.28369
C          3.75015        0.35885       -1.69690
C          4.55334       -0.69423       -2.38096
O          5.69219       -0.58059       -2.79885
O          3.91129       -1.90663       -2.54850
H          2.15703       -1.72075       -0.35850
H          4.34985        1.26558       -1.57211
H          2.86767        0.59340       -2.31458
H          3.12351       -1.91819       -1.95694
