48

N          0.52526       -0.75743       -1.17971
C          1.91194       -0.50899       -0.68978
C          2.65910        0.50341       -1.52448
P          4.41794        0.96760       -0.73641
C          5.35398       -0.34458       -1.85651
C          6.73618       -0.69631       -1.32642
C          7.35521       -1.94352       -1.97547
C          8.73687       -2.34639       -1.45257
N          9.75724       -1.33839       -1.79222
C          4.67745        2.41447       -2.05322
C          4.25545        3.79297       -1.54489
C          5.16176        4.35074       -0.43585
C          6.54641        4.76855       -0.92914
N          7.33937        5.28750        0.17902
C          8.58382        5.84523        0.01811
N          9.28473        5.94332       -1.06443
N          9.10875        6.36995        1.22078
H          0.14721       -1.59872       -0.73256
H          0.57728       -0.97417       -2.17837
H          2.50869       -1.44141       -0.63646
H          1.83427       -0.13575        0.34676
H          2.08224        1.44143       -1.58533
H          2.80356        0.12416       -2.55309
H          5.71424        1.35082       -0.08023
H          3.69474        1.91232        0.18376
H          4.26023       -0.11304        0.29741
H          5.41174        0.00539       -2.90266
H          4.71127       -1.24310       -1.84569
H          6.65991       -0.86700       -0.23460
H          7.42108        0.15762       -1.44569
H          7.42075       -1.79873       -3.07147
H          6.67189       -2.79864       -1.83182
H          8.98470       -3.35988       -1.83487
H          8.69995       -2.42179       -0.35239
H          9.78025       -1.20338       -2.80524
H         10.68672       -1.66019       -1.51964
H          4.11588        2.16879       -2.96957
H          5.74835        2.39762       -2.31935
H          3.23675        3.71015       -1.12539
H          4.19161        4.53784       -2.36428
H          5.27318        3.58332        0.34572
H          4.67930        5.23187        0.02756
H          6.44525        5.53396       -1.72521
H          7.06823        3.90388       -1.36730
H          6.81133        5.59187        0.99100
H          8.74377        5.62269       -1.87207
H          9.00352        5.73067        2.00684
H         10.08791        6.60732        1.07854
