29

I          1.10681       -0.45059        0.19389
Al         3.59986       -0.23084       -0.65970
C          4.26884        1.69316       -0.10138
C          4.09132        2.94726       -1.01190
C          2.62032        3.37779       -1.32658
C          2.46163        4.71157       -2.14710
F          3.14103        4.67548       -3.31088
F          1.15036        4.88996       -2.43858
F          2.87279        5.78857       -1.44708
F          2.01692        2.40445       -2.05603
F          1.92601        3.56400       -0.17181
F          4.71662        4.04787       -0.45889
F          4.70734        2.69931       -2.20970
F          3.85075        2.08344        1.17028
F          5.68186        1.61838       -0.00348
C          4.54598       -1.73995        0.28499
C          6.03151       -2.10564        0.06366
C          6.45537       -1.97486       -1.40668
C          6.96880       -1.29328        0.96769
H          3.59554       -0.28942       -2.27311
H          3.92223       -2.58991       -0.05471
H          4.34136       -1.66620        1.36726
H          6.17134       -3.17015        0.34261
H          6.41132       -0.92453       -1.73473
H          5.78941       -2.54800       -2.06851
H          7.48611       -2.33473       -1.56114
H          6.88936       -0.21875        0.75300
H          8.01966       -1.59462        0.82552
H          6.71481       -1.44044        2.02853
