39

C          1.80892       -1.32094       -0.08510
C          1.73066        0.12801       -0.54023
Sb         3.75401        0.96709       -1.05256
C          2.92951        3.11774       -0.60307
C          3.00473        3.66972        0.68547
C          2.53332        4.96170        0.95762
C          1.98015        5.74767       -0.06267
C          1.89469        5.21070       -1.34670
C          2.35710        3.90658       -1.60453
C          1.32117        6.02757       -2.47171
F          0.87103        7.25523       -2.07221
F          2.23545        6.25985       -3.46155
F          0.26153        5.40956       -3.07676
C          2.60397        5.55871        2.33473
F          3.09668        4.70661        3.26972
F          3.39478        6.68144        2.37774
F          1.37276        5.96471        2.78869
C          5.80854        1.80056       -1.50194
C          6.11183        1.91362       -2.99418
C          5.49141        3.16751       -3.60807
S          5.72070        3.33616       -5.41947
H          0.82721       -1.73572        0.20502
H          2.47590       -1.42308        0.78727
H          2.21946       -1.96644       -0.87749
H          1.33980        0.78699        0.24956
H          1.10937        0.25336       -1.44039
H          3.25246        1.26539       -2.77930
H          4.21335        0.89417        0.70581
H          4.37878       -0.68381       -1.41778
H          3.44124        3.07470        1.49471
H          1.62150        6.75566        0.14271
H          2.26659        3.49980       -2.61947
H          6.47643        1.07971       -1.00691
H          5.89876        2.76865       -0.98417
H          5.71676        1.03149       -3.53035
H          7.20136        1.92734       -3.18941
H          5.85973        4.07928       -3.11635
H          4.39948        3.14329       -3.48806
H          7.07504        3.37799       -5.40429
