34

C          4.81563        0.57765        2.69797
C          4.16388        0.47931        1.31642
C          4.90658        1.29685        0.25578
C          4.24626        1.15839       -1.12303
C          4.90488        1.98745       -2.25190
S          4.40486        1.23931       -3.91053
O          3.01888        0.79456       -3.84034
O          4.87324        2.09055       -4.98813
C          5.36591       -0.44549       -4.19545
C          4.52487       -1.36686       -5.15882
F          3.44699       -1.89310       -4.55283
F          4.13336       -0.70709       -6.26458
F          5.31190       -2.40518       -5.55568
F          6.53660       -0.21683       -4.81087
F          5.55350       -1.15865       -3.05954
S          4.08488        3.69108       -2.20540
O          2.92016        3.69409       -3.07786
O          3.93124        4.10290       -0.81996
C          5.27830        5.00691       -3.00070
F          6.13766        4.49796       -3.88270
F          4.45311        5.86242       -3.65820
F          5.92200        5.70839       -2.06585
C          6.48745        2.09050       -2.07110
O          7.09728        1.08133       -2.47042
O          6.84868        3.13281       -1.49216
H          4.26852       -0.01067        3.44953
H          4.84738        1.62118        3.04482
H          5.85226        0.20981        2.67200
H          3.11747        0.82428        1.37753
H          4.11870       -0.57893        1.00511
H          5.95184        0.95739        0.18851
H          4.93842        2.35389        0.55065
H          3.17342        1.40174       -1.06500
H          4.29744        0.10428       -1.43158
