39

C          4.64664        2.77849        1.31387
C          4.55865        1.33530        0.80443
C          5.08625        1.15723       -0.62983
C          5.03250       -0.27436       -1.16103
Nb         5.69156       -0.86646       -3.22890
C          4.26962       -0.94663       -4.92270
C          4.04512        0.09563       -6.00523
S          5.50510        0.18272       -7.11049
C          4.90340        1.39774       -8.31509
C          7.68253       -1.48939       -3.94242
C          8.85601       -1.73869       -2.99841
C         10.10931       -2.21506       -3.74158
S         11.52693       -2.72615       -2.67754
H          4.26058        2.88521        2.34018
H          4.07200        3.46107        0.66794
H          5.68940        3.13263        1.31062
H          3.51015        0.99077        0.84912
H          5.12167        0.67025        1.48302
H          6.12707        1.52246       -0.67883
H          4.51455        1.81698       -1.30571
H          3.99635       -0.66552       -1.08704
H          5.63431       -0.94331       -0.50979
H          5.01486        0.77156       -3.38687
H          6.77634        0.42147       -2.67508
H          5.08469       -2.38047       -2.36842
H          3.35962       -0.99566       -4.28693
H          4.38174       -1.95543       -5.37593
H          3.91122        1.08592       -5.54344
H          3.17500       -0.11444       -6.65783
H          5.69010        1.53172       -9.06943
H          4.70330        2.36846       -7.83875
H          3.98963        1.04531       -8.81681
H          7.94663       -0.73614       -4.71165
H          7.43630       -2.42833       -4.49217
H          8.59412       -2.49070       -2.23629
H          9.09202       -0.81130       -2.45026
H         10.45995       -1.45027       -4.44953
H          9.88898       -3.12345       -4.32304
H         11.61890       -1.56986       -1.97829
