66

C          9.04721       -5.08323       -2.77025
C          9.07096       -3.73414       -2.04903
C          9.09549       -3.85225       -0.52138
C          9.07154       -2.49594        0.18824
C          9.06813       -2.57572        1.71837
C          8.94926       -1.20108        2.38373
C          8.88899       -1.22924        3.91637
C          8.66438        0.16069        4.53059
Si         8.50538        0.28772        6.42745
C          7.96627        2.02908        6.86887
C          6.59820        2.38098        6.90665
C          6.18723        3.69278        7.14899
C          7.09932        4.74100        7.40819
C          8.46817        4.37410        7.37092
C          8.89088        3.06642        7.10026
Ta         6.52644        6.74017        8.18401
C          6.10421        6.03289       10.26208
C          7.12810        5.08683       10.93391
C          8.44820        5.73831       11.36794
C          9.41274        4.74947       12.03519
C         10.73367        5.37828       12.48937
O          8.26564        7.63686        8.30603
C          7.22452       -0.97829        7.02405
C         10.17494       -0.14271        7.21780
H          9.02358       -4.95798       -3.86226
H          8.16194       -5.67069       -2.48336
H          9.93530       -5.68414       -2.52270
H          8.18866       -3.14281       -2.34773
H          9.94834       -3.15302       -2.38037
H          9.99236       -4.41806       -0.21201
H          8.22968       -4.45288       -0.18970
H          8.17826       -1.93622       -0.14115
H          9.93841       -1.89659       -0.14189
H          9.98671       -3.08166        2.06510
H          8.22795       -3.21265        2.04818
H          8.04083       -0.69923        2.00608
H          9.79490       -0.56508        2.06709
H          9.82068       -1.67489        4.30804
H          8.07694       -1.91013        4.22624
H          7.74553        0.60422        4.10865
H          9.47833        0.84235        4.22589
H          5.83511        1.61444        6.73221
H          5.11641        3.91921        7.12964
H          9.23323        5.13351        7.56531
H          9.96579        2.85327        7.08170
H          6.11331        8.27537        7.34721
H          5.52189        6.45653        6.71819
H          4.89870        7.34661        8.61917
H          5.14380        5.49362       10.14718
H          5.86587        6.87224       10.94156
H          7.36439        4.24847       10.25511
H          6.67967        4.61651       11.83409
H          8.23490        6.56679       12.06908
H          8.94079        6.20405       10.49759
H          9.62378        3.92605       11.33159
H          8.91250        4.28309       12.90274
H         11.27707        5.81494       11.63771
H         11.39694        4.63896       12.96480
H         10.56050        6.18666       13.21692
H          8.34250        8.53858        7.96915
H          6.24000       -0.80561        6.56593
H          7.09769       -0.91431        8.11416
H          7.53204       -2.00544        6.77808
H         10.96496        0.55276        6.90025
H         10.49300       -1.15920        6.94108
H         10.11153       -0.09600        8.31429
