18

N          2.73184        1.19488        0.68375
C          2.30212       -0.06220        0.04519
C          2.92236       -0.15682       -1.36546
S          2.27063       -1.64139       -2.15242
O          0.82590       -1.66206       -2.17277
O          3.02837       -2.05362       -3.30845
F          2.66302       -2.79190       -1.00162
C          2.43218        1.11453       -2.33112
O          3.02569        1.18351       -3.41884
O          1.56705        1.84444       -1.79562
C          4.45017       -0.23534       -1.35694
H          2.33297        1.23198        1.62311
H          2.28422        1.93786        0.13128
H          1.20717       -0.14355       -0.05916
H          2.65769       -0.90424        0.66061
H          4.81641       -1.14631       -0.85977
H          4.81498        0.63484       -0.79541
H          4.82748       -0.18815       -2.38363
