13

N          2.85243       -1.87593       -1.35005
In         2.92902       -0.41006        0.14733
S          4.35352        1.56388       -1.10582
O          4.88237        2.67752       -0.28858
O          5.31547        0.85118       -1.98234
C          3.24120        2.49229       -2.39511
F          2.59929        1.60994       -3.20592
F          2.29707        3.24467       -1.78151
F          3.98132        3.31224       -3.18042
Cl         0.63890        0.33076        0.51475
H          3.64997       -1.71890       -1.97471
H          2.02716       -1.68154       -1.92493
H          3.83418       -0.55471        1.62199
