9

Cl         0.89842        0.24514        0.03150
N          2.66288        0.14722        0.04362
C          3.20113        0.67912       -1.05673
C          2.75309        0.31210       -2.51847
F          2.66127       -1.04281       -2.66373
F          1.55453        0.82955       -2.87694
F          3.65339        0.72921       -3.46203
F          3.18684        2.20526       -1.18738
F          4.57097        0.40896       -1.01870
