32

Br         1.17163        0.67844       -0.37831
Nb         3.58778        0.00510        0.16169
C          4.78127       -1.35912       -1.17122
C          6.15196       -0.92001       -1.75941
C          7.38997       -1.07591       -0.81034
C          8.78606       -0.74963       -1.46130
F          9.12998       -1.65528       -2.39933
F          8.80953        0.47586       -2.02188
F          9.73571       -0.78209       -0.49444
F          7.25570       -0.23865        0.24869
F          7.48274       -2.35474       -0.35350
F          6.45401       -1.59384       -2.92328
F          6.06080        0.41624       -2.08755
F          4.86649       -2.72547       -1.00460
F          3.89334       -1.18138       -2.29652
C          4.64377        1.47861        1.31764
C          4.77407        2.56775        0.43527
C          5.50562        3.72009        0.76564
C          6.12875        3.81932        2.01282
C          5.99751        2.74061        2.91310
C          5.27516        1.60054        2.57228
C          6.93351        5.03887        2.39012
H          3.07128       -0.30142        1.77468
H          4.60559       -0.92381        1.23502
H          3.04954       -1.60149        0.52503
H          4.28303        2.54426       -0.55220
H          5.58570        4.54731        0.05381
H          6.47964        2.80856        3.89392
H          5.19603        0.77422        3.28247
H          6.81274        5.84202        1.65000
H          8.00829        4.80462        2.45594
H          6.63084        5.43286        3.37249
