45

C          2.55751        3.73904       -0.82509
O          3.87129        3.36609       -0.47209
C          4.83593        3.83742       -1.40915
C          6.22854        3.35326       -1.02132
O          6.44249        1.95913       -1.10777
C          6.35845        1.38707       -2.42926
C          7.24456        2.03935       -3.48009
Nb         9.39548        2.44751       -3.13209
S         11.05796        1.55325       -1.52737
O         12.32033        2.30268       -1.73381
O         10.58552        1.39792       -0.13705
C         11.67044       -0.30728       -1.79604
C         12.19907       -0.79629       -3.17575
F         13.07399        0.07110       -3.72023
F         12.85951       -1.99092       -3.03088
F         11.20145       -1.01625       -4.05560
F         12.70714       -0.45721       -0.91402
F         10.68206       -1.17347       -1.42440
C         10.04257        3.51008       -4.89970
C         10.33072        3.02951       -6.31445
C          9.19190        2.22418       -6.95350
C          9.02535        4.65055       -4.76633
H          1.88362        3.32630       -0.06216
H          2.26739        3.33585       -1.81560
H          2.43437        4.84085       -0.85322
H          4.84188        4.94825       -1.42311
H          4.56772        3.49753       -2.42950
H          6.41883        3.61238        0.03090
H          6.96315        3.91533       -1.63333
H          5.29086        1.37273       -2.73952
H          6.67447        0.34558       -2.28021
H          6.80219        2.99504       -3.83662
H          7.26583        1.36667       -4.35837
H         10.58211        1.44989       -3.91891
H          9.12648        0.73926       -2.84516
H          9.77016        3.55408       -1.76877
H         10.99295        3.82208       -4.41122
H         11.23112        2.39758       -6.27863
H         10.57722        3.88513       -6.97737
H          9.00349        1.30525       -6.37967
H          9.43800        1.93583       -7.98674
H          8.25172        2.79582       -6.98796
H          8.13810        4.49136       -5.39644
H          9.45062        5.64121       -5.00604
H          8.65412        4.76469       -3.71931
