36

C          1.28373        0.78534        0.56587
C          2.61696        0.24253        0.04345
C          3.07850       -1.03008        0.76340
C          4.41757       -1.58275        0.25807
B          5.02317       -2.86428        1.05890
S          4.06144       -4.49737        0.58071
O          3.82395       -4.65123       -0.85332
O          4.48438       -5.67711        1.32370
F          2.52334       -4.19506        1.19084
C          6.56615       -3.17522        0.67908
C          7.56177       -3.13611        1.67528
C          8.91563       -3.31169        1.37227
C          9.32703       -3.54711        0.05533
C          8.35531       -3.60012       -0.94381
C          6.99909       -3.41552       -0.63731
C          8.75194       -3.87969       -2.36772
F         10.10338       -3.82007       -2.56530
F          8.36013       -5.12122       -2.78274
F          8.19427       -2.99389       -3.24500
C          9.97157       -3.24575        2.43952
F          9.47028       -3.03789        3.68423
F         10.71779       -4.39372        2.50548
F         10.87412       -2.23553        2.21131
H          0.97321        1.69950        0.03681
H          1.34831        1.02532        1.63870
H          0.48211        0.04024        0.44696
H          3.39600        1.01943        0.14156
H          2.53266        0.03507       -1.03729
H          2.29640       -1.80056        0.66732
H          3.15870       -0.82248        1.84581
H          5.17603       -0.78006        0.33788
H          4.33893       -1.80079       -0.82295
H          4.87258       -2.81444        2.26844
H          7.26106       -2.96279        2.70899
H         10.38048       -3.68429       -0.18481
H          6.25971       -3.47145       -1.43936
