24

C          4.72006       -3.56573        1.66424
O          4.40481       -2.20802        1.88025
C          5.05802       -1.34598        0.94895
C          4.69011        0.10846        1.22428
O          5.23165        0.65062        2.41781
C          6.62532        0.99106        2.36710
C          6.99229        2.15918        1.45534
Ta         6.42250        4.24730        1.50475
I          7.31612        4.35115        4.19735
Br         4.39737        3.83917       -0.05602
H          4.18551       -4.15217        2.42394
H          5.80670       -3.75983        1.76293
H          4.40146       -3.90903        0.65885
H          4.73962       -1.60148       -0.08384
H          6.15447       -1.49829        1.00289
H          3.59728        0.17739        1.33587
H          4.96391        0.71751        0.34327
H          7.21369        0.08615        2.10308
H          6.87822        1.25554        3.40400
H          6.86833        1.90662        0.38337
H          8.08024        2.35562        1.59231
H          7.91943        5.18698        1.51066
H          6.89738        4.93895       -0.04640
H          5.11006        5.03933        2.38152
