33

N          0.86828       -3.02606        2.56068
C          2.14741       -3.57815        2.81796
N          2.43678       -4.45408        3.72080
N          3.11367       -3.04684        1.99239
C          4.53240       -3.34816        2.17928
C          5.34472       -2.73501        1.03906
C          6.86663       -2.92046        1.16315
C          7.33581       -4.37783        1.05130
Ga         9.29731       -4.70621        0.87877
S         10.54309       -4.24248        2.93520
O         10.32629       -5.41170        3.80999
O         11.91587       -3.74959        2.74771
C          9.72471       -2.81364        3.95073
F          8.45711       -3.13212        4.32149
F         10.43771       -2.58004        5.07456
F          9.67052       -1.66777        3.23645
S         10.13987       -3.00681       -0.67928
O          9.82624       -1.62270       -0.33521
O         11.39856       -3.27910       -1.36074
F          8.96364       -3.37718       -1.87255
H          0.12397       -3.55033        3.01133
H          0.67188       -2.90358        1.56837
H          1.58624       -4.81650        4.16071
H          2.91941       -2.10644        1.65981
H          4.63930       -4.44060        2.21086
H          4.89116       -2.97045        3.15432
H          5.12966       -1.65056        0.99863
H          4.99723       -3.15842        0.08123
H          7.19946       -2.49006        2.11985
H          7.34441       -2.31309        0.38171
H          6.90562       -4.84383        0.14842
H          6.99723       -4.97815        1.91041
H         10.00331       -6.03094        0.45071
