35

O          3.62443       -1.71919        3.06719
C          2.59354       -1.61875        2.18960
O          1.47874       -1.34753        2.59567
C          2.91151       -1.88622        0.74060
Al         4.10738       -0.69037       -0.30994
S          3.95671        1.60413        0.38128
O          2.55102        2.00711        0.20991
O          4.65267        1.93403        1.62914
C          4.97120        2.65116       -0.94365
C          4.16384        3.19405       -2.15114
F          3.51366        2.19549       -2.78190
F          3.27178        4.12231       -1.76120
F          4.99680        3.77874       -3.05740
F          5.54326        3.70302       -0.31090
F          5.95401        1.83341       -1.41935
S          6.34130       -1.36223        0.48321
O          7.49917       -0.48664        0.27936
O          6.11924       -1.89917        1.85197
C          6.83769       -3.03867       -0.42061
C          7.24351       -3.04129       -1.92957
C          8.49165       -2.18425       -2.36250
C          9.13844       -2.64242       -3.72459
F          8.20600       -2.76969       -4.68973
F         10.03012       -1.70784       -4.11767
F          9.79424       -3.81147       -3.59788
F          8.11388       -0.89597       -2.52271
F          9.46933       -2.25592       -1.42379
F          7.49757       -4.34713       -2.27983
F          6.17384       -2.61871       -2.65504
F          7.83548       -3.59258        0.30906
F          5.74118       -3.85818       -0.33547
H          4.48971       -1.84089        2.60009
H          1.96155       -1.94411        0.19164
H          3.41511       -2.86460        0.65230
H          4.10201       -0.73314       -1.90026
