49

N          7.50173       -2.86869        2.41968
C          6.37736       -1.93035        2.62468
C          5.61279       -1.77133        1.30457
C          4.52140       -0.68790        1.18809
S          3.25142       -0.95399        2.52164
O          3.85257       -0.69928        3.83635
O          2.01874       -0.23736        2.19446
C          2.85897       -2.70890        2.42855
C          5.01538        0.73756        1.27465
C          6.38638        1.05517        1.24682
C          6.83231        2.37829        1.22478
C          5.93246        3.46004        1.24772
C          4.55920        3.13764        1.27706
C          4.10990        1.81942        1.27319
Si         6.53516        5.23057        1.14028
C          6.92878        5.67591       -0.67497
C          5.77275        5.41585       -1.64721
C          6.07834        5.81445       -3.07369
F          7.15452        5.15363       -3.58734
F          5.02932        5.56546       -3.90862
F          6.35488        7.15203       -3.19291
C          5.22187        6.43694        1.77547
C          8.13635        5.48056        2.11890
C          3.73090       -0.94260       -0.27940
O          3.42667       -2.14298       -0.46552
O          3.58810        0.06861       -0.97981
H          8.06278       -2.92559        3.27130
H          8.12362       -2.50113        1.69531
H          6.69019       -0.94379        3.00966
H          5.72401       -2.35665        3.39832
H          5.16556       -2.72864        1.00810
H          6.34146       -1.54941        0.50375
H          3.67825       -3.29629        2.85587
H          2.69486       -2.94721        1.36884
H          1.94863       -2.81049        3.03122
H          7.13338        0.26223        1.22263
H          7.91108        2.56008        1.19488
H          3.81115        3.93519        1.28781
H          3.04238        1.61322        1.26038
H          7.80703        5.08695       -0.98401
H          7.22996        6.73563       -0.71751
H          4.86830        5.97452       -1.36242
H          5.49885        4.35048       -1.66152
H          4.28471        6.36663        1.20538
H          5.58050        7.47433        1.70150
H          4.98082        6.23451        2.82852
H          8.92657        4.79777        1.77558
H          7.97534        5.29150        3.18953
H          8.51100        6.50879        2.00585
