51

N          0.96481       -0.08056       -0.61094
C          2.43428        0.04882       -0.48624
Ga         2.94010        1.66034        0.65620
C          1.78084        3.21542        0.04491
C          0.50129        3.40622        0.59996
C         -0.34961        4.43818        0.18398
C          0.04330        5.34004       -0.81328
C          1.31749        5.16838       -1.37729
C          2.15630        4.13108       -0.95808
C         -0.86788        6.45627       -1.26641
C          4.90683        2.08163        0.34110
C          5.48438        2.08615       -0.94535
C          6.84023        2.33259       -1.16086
C          7.68372        2.58605       -0.06704
C          7.14571        2.59133        1.22855
C          5.78472        2.34101        1.41226
C          9.13922        2.84492       -0.29703
C          9.53895        4.26236       -0.86279
C          9.15089        5.56792       -0.06592
C          9.73285        5.87796        1.37129
C         11.29019        5.98751        1.63238
C         12.13758        7.02827        0.81060
F         11.58201        8.25364        0.85091
F         13.36659        7.10195        1.37012
F         12.28624        6.65753       -0.46919
F         11.40728        6.35680        2.94185
F         11.86955        4.77400        1.48345
F          9.19635        7.08188        1.72441
F          9.27680        4.94790        2.24478
F          9.52263        6.62327       -0.85766
F          7.80471        5.60448        0.07089
F         10.89124        4.29574       -1.06486
F          8.94354        4.41077       -2.08149
F          9.88912        2.66453        0.84530
F          9.65725        1.97227       -1.24237
H          0.70393       -0.67405       -1.40230
H          0.55381        0.83620       -0.79654
H          2.95036        0.13446       -1.46583
H          2.83181       -0.85824       -0.00091
H          2.72950        1.43408        2.23134
H          0.15674        2.73352        1.39194
H         -1.33675        4.54945        0.64588
H          1.65704        5.86171       -2.15447
H          3.14324        4.04617       -1.42443
H         -1.78620        6.48773       -0.66293
H         -1.16737        6.33572       -2.32018
H         -0.37917        7.43978       -1.18278
H          4.85745        1.87486       -1.81678
H          7.25018        2.31308       -2.17177
H          7.79406        2.77733        2.08529
H          5.39019        2.33663        2.43282
