21

O          2.07730        0.68897       -0.65693
C          2.44303       -0.40141        0.04473
O          1.93401       -0.63254        1.13336
C          3.47748       -1.30187       -0.61294
C          4.86888       -0.64566       -0.80339
C          5.60222       -1.14658       -2.03638
C          4.83897       -0.85372       -3.36004
C          4.50953        0.61193       -3.31924
O          3.40984        1.08579       -2.95430
O          5.59362        1.43263       -3.40840
N          6.90888       -0.40981       -2.12208
H          2.60332        0.78046       -1.51466
H          3.07929       -1.58136       -1.59968
H          3.55684       -2.22004       -0.01913
H          5.47589       -0.87751        0.08998
H          4.73525        0.47152       -0.77678
H          3.91872       -1.44642       -3.43377
H          5.47990       -1.11077       -4.21715
H          6.37951        0.85632       -3.05412
H          7.64858       -1.03624       -2.44075
H          7.18984       -0.07322       -1.19809
