37

C          2.24856       -0.19154        0.69978
C          0.80533       -0.14705        0.25700
C          0.36148       -0.90193       -0.83977
C         -0.97209       -0.84509       -1.25406
C         -1.92473       -0.04212       -0.59959
C         -1.46640        0.70823        0.49676
C         -0.13276        0.65882        0.91682
Ga        -3.84941       -0.02962       -1.17280
S         -4.76275       -1.68384        0.38112
O         -4.70962       -1.16318        1.77730
O         -6.05034       -2.29497       -0.04164
C         -3.57095       -3.07943        0.37083
C         -4.81260        1.66780       -0.75324
C         -5.14199        2.56461       -1.78461
C         -5.74107        3.80228       -1.52629
C         -6.04328        4.19485       -0.21559
C         -5.72885        3.30371        0.82180
C         -5.12808        2.06890        0.55997
C         -6.71096        5.51942        0.06861
H          2.60836       -1.22627        0.80666
H          2.38291        0.31319        1.66667
H          2.91056        0.30584       -0.02791
H          1.07111       -1.54338       -1.37305
H         -1.28155       -1.45255       -2.11061
H         -2.16560        1.34338        1.04722
H          0.18721        1.25398        1.77818
H         -4.07136       -0.62865       -2.62549
H         -2.58910       -2.71523        0.69420
H         -3.52253       -3.49186       -0.64480
H         -3.97208       -3.82155        1.07393
H         -4.92619        2.29538       -2.82340
H         -5.97750        4.47677       -2.35576
H         -5.95867        3.58263        1.85505
H         -4.91664        1.39426        1.39368
H         -6.58291        6.21963       -0.76927
H         -6.29959        5.99335        0.97225
H         -7.79461        5.39860        0.23268
