37

N          1.89336        0.46762        3.15032
C          2.01451        1.27656        1.92432
C          3.10123        0.70004        1.02232
Nb         5.27017        0.78018        1.37086
C          6.21327       -0.61238       -0.05375
C          6.49512       -2.09987        0.14886
C          5.26004       -2.93070        0.52358
C          5.47442       -0.30448       -1.36886
C          6.29145        2.15872        2.85614
C          6.62660        1.88818        4.33615
C          7.97606        1.22559        4.59908
O          8.78836        1.65490        5.43168
N          8.21425        0.11271        3.85672
H          1.38981        0.99220        3.86813
H          2.85467        0.33649        3.49600
H          2.24990        2.34269        2.12897
H          1.02602        1.27199        1.42249
H          3.07232        1.20062        0.02726
H          2.89502       -0.37526        0.83665
H          6.20348       -0.38278        2.35159
H          5.76939        2.33488        0.53492
H          4.62269        0.49536        2.99852
H          7.18380       -0.06421       -0.06811
H          7.24068       -2.20601        0.95219
H          6.95368       -2.54249       -0.76274
H          4.83851       -2.57886        1.47696
H          5.50921       -3.99783        0.63389
H          4.46978       -2.85611       -0.23890
H          4.51809       -0.84623       -1.43989
H          6.07042       -0.57847       -2.26282
H          5.24530        0.77117       -1.47444
H          5.47574        2.91402        2.82047
H          7.15367        2.65775        2.37851
H          5.84657        1.24247        4.77637
H          6.65502        2.81829        4.92817
H          7.51080       -0.19022        3.16145
H          9.10162       -0.36233        3.96805
