46

Cl         6.68165       10.06093        5.40963
N          6.24860        9.13538        3.94443
C          6.16192        7.81619        4.16601
C          5.81536        7.01918        3.01039
C          5.69442        5.64703        3.08014
C          5.89394        4.91541        4.28701
C          6.23009        5.69802        5.42240
C          6.36196        7.07600        5.38364
Si         5.76286        3.08408        4.38267
C          7.47422        2.30608        4.80041
C          7.49234        0.77416        4.84831
C          8.85252        0.10321        4.94463
C          9.73324        0.30751        6.23049
C          9.13296       -0.02434        7.64955
C          8.67112       -1.49078        8.03041
C          9.72715       -2.65672        7.95121
C          9.30904       -3.96024        8.73451
F          8.07149       -4.36126        8.38797
F         10.17972       -4.94273        8.42057
F          9.35141       -3.77383       10.06506
F          9.91072       -3.01494        6.65932
F         10.91326       -2.24947        8.47435
F          8.25794       -1.40760        9.33081
F          7.59850       -1.82690        7.27164
F         10.07078        0.34399        8.56552
F          8.03341        0.75699        7.84095
F         10.87494       -0.43502        6.09945
F         10.09923        1.61647        6.29868
F          8.70495       -1.26755        4.79865
F          9.66275        0.50811        3.90762
C          4.56118        2.50251        5.73992
C          5.19935        2.33480        2.72965
H          5.65295        7.54480        2.06666
H          5.43169        5.11069        2.16201
H          6.39620        5.20217        6.38741
H          6.62126        7.62899        6.28610
H          7.80910        2.73645        5.75619
H          8.17964        2.66820        4.03700
H          7.07503        0.35655        3.91688
H          6.86757        0.38717        5.66575
H          4.84001        2.93237        6.71344
H          4.52634        1.40707        5.84922
H          3.54416        2.85170        5.51041
H          5.92016        2.54968        1.92731
H          4.23043        2.75688        2.42665
H          5.07829        1.24291        2.79252
