26

F          0.85999       -0.08354       -1.34430
C          1.76243        0.18910       -0.34032
O          2.07640        1.47730       -0.24084
C          2.73102        2.09682       -1.38214
P          3.15900        3.92242       -0.93973
S          5.60905        3.23855       -0.53554
O          6.01465        1.99908       -1.23918
O          6.49799        4.41189       -0.67592
C          5.85338        2.67439        1.34159
C          5.86757        3.80704        2.39713
F          4.80100        4.62122        2.24123
F          5.81003        3.30173        3.66603
F          6.99007        4.54540        2.31242
F          4.82276        1.82854        1.64447
F          7.02061        1.98099        1.45450
C          1.44211        4.73511       -1.29864
F          1.46701        5.50793       -2.43095
F          0.40162        3.85946       -1.46560
F          1.07143        5.56751       -0.27848
F          1.19123       -0.20859        0.82224
F          2.82975       -0.63266       -0.57442
H          2.05153        2.09917       -2.24755
H          3.66645        1.57027       -1.61678
H          2.82847        3.66787        0.46158
H          3.70689        5.23355       -0.61547
H          3.65454        4.03463       -2.32372
