49

S          1.48878        1.00875       -0.31706
C          2.94221        0.08567        0.34517
C          3.60067       -0.69794       -0.78852
C          4.84813       -1.47380       -0.35086
B          5.54313       -2.34418       -1.56348
C          4.47742       -3.40674       -2.16522
C          3.98620       -4.48035       -1.39192
C          3.01356       -5.36172       -1.85656
C          2.48502       -5.20111       -3.14629
C          2.95089       -4.14778       -3.94832
C          3.92368       -3.27980       -3.45575
C          1.44066       -6.13787       -3.66696
C          1.88580       -7.17938       -4.76671
C          3.10871       -8.13845       -4.49204
C          3.09857       -9.19346       -3.31540
C          1.99803      -10.32691       -3.22478
C          1.82284      -11.32859       -4.42583
F          3.00085      -11.86264       -4.79663
F          1.01222      -12.33269       -4.01926
F          1.25367      -10.74145       -5.48901
F          2.35639      -11.08710       -2.14833
F          0.78843       -9.77655       -2.96870
F          4.30290       -9.82921       -3.38919
F          3.04584       -8.53568       -2.13194
F          3.29640       -8.85814       -5.64380
F          4.20994       -7.37891       -4.29159
F          0.81444       -7.96335       -5.09628
F          2.23905       -6.48468       -5.88747
F          0.85946       -6.87643       -2.65951
F          0.40867       -5.44597       -4.28449
C          6.94568       -3.05748       -1.04984
C          7.79747       -3.65432       -2.14383
O          8.45820       -4.67717       -2.07698
O          7.80327       -2.92393       -3.30214
H          1.09703        1.58506        0.84453
H          2.59756       -0.59504        1.13653
H          3.64780        0.80628        0.78292
H          3.87083       -0.00324       -1.60252
H          2.85973       -1.39400       -1.21663
H          4.57746       -2.14445        0.48943
H          5.58973       -0.76357        0.06227
H          5.82942       -1.53038       -2.48292
H          4.37369       -4.62687       -0.37992
H          2.65319       -6.16831       -1.21924
H          2.54362       -4.00260       -4.94998
H          4.26666       -2.45868       -4.09025
H          6.80545       -3.83620       -0.28392
H          7.55960       -2.26816       -0.57557
H          7.09345       -2.24139       -3.17078
