32

N          0.98859       -0.21517        0.68814
C          1.97953        0.46739       -0.14956
Nb         3.04035       -0.13702        1.71934
C          1.95800       -0.54963        3.63242
C          2.51268       -0.00434        4.95826
C          2.13573        1.47145        5.15150
C          2.05594       -0.82932        6.17736
C          5.04017       -0.94319        2.39256
C          6.23237       -0.99734        1.46129
N          7.45827       -1.56333        2.11591
H          0.63707       -1.09900        0.33359
H          0.24995        0.37442        1.05809
H          1.72957        1.51852       -0.31260
H          2.17000       -0.06120       -1.09005
H          2.98434       -1.61278        0.59409
H          2.21443        1.45992        2.00827
H          4.09867        1.25846        1.32354
H          2.11512       -1.65632        3.59954
H          0.86547       -0.39096        3.60082
H          3.61761       -0.06346        4.93263
H          1.03978        1.57664        5.23199
H          2.45506        2.06864        4.28644
H          2.58120        1.88800        6.07033
H          0.95643       -0.80716        6.26382
H          2.47691       -0.43879        7.12130
H          2.36038       -1.88221        6.07906
H          4.85671       -1.94978        2.82146
H          5.27344       -0.26767        3.24698
H          6.41489        0.01604        1.05772
H          6.00654       -1.64856        0.60057
H          7.58254       -1.06941        3.00417
H          8.28568       -1.33486        1.55425
