21

C          0.95460       -0.08657        0.06076
C          2.48809       -0.13510        0.04291
N          2.97266       -1.44648       -0.10850
C          4.37786       -1.46405       -0.12193
C          4.95843       -2.88235       -0.31354
C          4.44122       -3.49683       -1.61789
C          6.48993       -2.88554       -0.24806
H          0.57436        0.94275        0.18204
H          0.57009       -0.70786        0.88571
H          0.55550       -0.50434       -0.87794
H          2.85326        0.38437        0.99480
H          2.84188        0.58286       -0.77368
H          4.85687       -1.03924        0.82674
H          4.84096       -0.80944       -0.94245
H          4.56748       -3.49047        0.52355
H          4.84487       -2.94724       -2.48702
H          3.34708       -3.39152       -1.63597
H          4.72498       -4.55829       -1.72503
H          6.91622       -2.28950       -1.07296
H          6.90602       -3.90425       -0.32418
H          6.84373       -2.44131        0.69635
