111

C         11.14414       -2.96541       -1.11509
C         10.47339       -1.62677       -0.79600
C          9.58255       -1.10644       -1.92904
C          8.91295        0.23338       -1.61536
C          8.06456        0.77974       -2.76915
C          7.44347        2.16265       -2.45089
C          7.73513        3.28713       -3.48353
C          7.04407        3.08825       -4.81974
C          6.22020        1.98909       -5.11732
C          5.63876        1.82711       -6.37981
C          5.84306        2.76127       -7.41160
C          6.65189        3.87619       -7.10222
C          7.23526        4.03627       -5.84786
Si         5.07876        2.52055       -9.10877
C          3.19433        2.80936       -9.02742
C          2.42511        2.60966      -10.34200
C          0.91782        2.87559      -10.23295
C          0.16346        2.66160      -11.54888
C         -1.34223        2.92729      -11.45397
C         -2.08995        2.69712      -12.77070
C         -3.59546        2.96708      -12.68350
C         -4.33102        2.72176      -14.00316
C          5.83164        3.73267      -10.35491
C          5.40069        0.75377       -9.71857
C          7.28220        4.60981       -2.84726
C          8.14040        5.37667       -2.03510
C          7.70840        6.57082       -1.45818
C          6.39685        7.05731       -1.63936
C          5.53112        6.26640       -2.42067
C          5.96404        5.07584       -3.00917
Si         5.91081        8.75790       -1.02128
C          6.54571       10.04413       -2.28638
C          6.04427        9.76037       -3.70759
C          6.46577       10.73841       -4.79127
C          7.98803       10.86989       -5.16628
C          8.83184        9.57825       -5.49210
C          8.45362        8.62685       -6.70077
C          8.43305        9.23856       -8.15104
C          8.44182        8.16633       -9.30647
F          7.46949        7.25574       -9.13005
F          8.21998        8.80800      -10.47663
F          9.62557        7.54156       -9.38991
F          7.31345        9.98656       -8.31040
F          9.52180       10.03155       -8.33883
F          9.38688        7.64068       -6.68567
F          7.23821        8.07723       -6.44984
F         10.11224        9.99783       -5.68865
F          8.81483        8.78463       -4.38818
F          8.09949       11.71672       -6.23096
F          8.63034       11.45374       -4.11064
F          5.79965       10.43718       -5.95978
F          6.08072       12.02192       -4.45317
C          4.03146        8.93115       -0.87049
C          6.71313        9.16240        0.64213
C          9.37893        3.36022       -3.68364
O         10.01505        3.11137       -2.62814
O          9.79356        3.67587       -4.81520
H         11.78261       -3.31180       -0.28861
H         11.77511       -2.88624       -2.01367
H         10.39486       -3.74872       -1.30971
H         11.24507       -0.87076       -0.57404
H          9.87218       -1.72527        0.12486
H          8.81402       -1.86628       -2.16557
H         10.19184       -0.99575       -2.84348
H          9.68041        0.99030       -1.38816
H          8.28441        0.12614       -0.71169
H          7.27727        0.04720       -3.02012
H          8.70305        0.85913       -3.66256
H          7.85962        2.51355       -1.49742
H          6.35204        2.07787       -2.30389
H          6.02632        1.23317       -4.35632
H          5.01557        0.94364       -6.55337
H          6.84684        4.63446       -7.86552
H          7.87815        4.89280       -5.65364
H          3.03542        3.83494       -8.65045
H          2.78473        2.14349       -8.24755
H          2.57543        1.57932      -10.70944
H          2.84229        3.26906      -11.12340
H          0.75741        3.90966       -9.88035
H          0.48999        2.22072       -9.45341
H          0.32786        1.62624      -11.89716
H          0.59831        3.31361      -12.32730
H         -1.50871        3.96555      -11.11648
H         -1.77761        2.28179      -10.67072
H         -1.92689        1.65704      -13.10525
H         -1.65167        3.33815      -13.55630
H         -3.75811        4.00846      -12.35781
H         -4.03196        2.33192      -11.89408
H         -3.93629        3.36611      -14.80331
H         -5.40763        2.92483      -13.91251
H         -4.21495        1.67860      -14.33413
H          5.62777        4.77794      -10.08158
H          5.42510        3.56486      -11.36305
H          6.92272        3.60923      -10.40890
H          4.98722        0.00950       -9.02246
H          6.48163        0.56855       -9.79377
H          4.95483        0.57439      -10.70817
H          9.15964        5.01834       -1.87699
H          8.42412        7.14167       -0.85866
H          4.49669        6.58289       -2.58477
H          5.26878        4.50234       -3.62531
H          7.64475       10.01193       -2.25057
H          6.24690       11.05627       -1.97035
H          4.94323        9.79693       -3.74344
H          6.32880        8.74876       -4.02944
H          3.51682        8.73611       -1.82198
H          3.75961        9.94650       -0.54612
H          3.63355        8.22175       -0.13090
H          7.80739        9.07222        0.59165
H          6.35913        8.47725        1.42527
H          6.47621       10.19001        0.95515
