57

F          4.91047        5.56391       -4.83523
C          4.72623        6.39229       -3.76197
C          4.19968        5.65674       -2.54965
C          2.83776        4.98899       -2.77114
Si         2.20237        4.04476       -1.24035
C          2.13872        5.22134        0.22269
C          1.42866        6.43694        0.13322
C          1.33220        7.30816        1.22090
C          1.93194        7.00197        2.45817
C          2.66007        5.80111        2.54054
C          2.76337        4.93135        1.44952
Ga         1.76827        8.23014        4.02219
S         -0.44362        9.36361        3.84085
O         -0.89921       10.06987        5.04881
O         -0.30041       10.14489        2.59496
C         -1.98570        8.18336        3.30744
C         -3.04992        7.90070        4.40051
C         -4.18394        6.87833        4.02527
F         -4.87109        7.28393        2.93667
F         -3.68945        5.64893        3.78394
F         -5.06060        6.77769        5.05483
F         -2.43429        7.39742        5.50554
F         -3.67725        9.06395        4.72450
F         -2.60296        8.77445        2.25077
F         -1.45783        6.99575        2.88213
C          2.09915        7.31573        5.88115
C          1.14104        6.35201        6.64529
C          0.72194        5.04759        5.88850
C         -0.22472        4.06611        6.67420
F          0.39254        3.54051        7.75186
F         -1.35674        4.66763        7.07683
F         -0.56089        3.04443        5.85147
F          0.07222        5.38879        4.74612
F          1.82884        4.32051        5.56323
F          1.71284        5.95656        7.83360
F          0.00409        7.04152        6.94617
F          3.31857        6.62761        5.76066
F          2.34204        8.32281        6.80737
C          0.48009        3.38106       -1.64696
C          3.36916        2.59618       -0.89111
F          5.93670        6.97435       -3.51245
F          3.89272        7.38603       -4.17854
H          4.14955        6.38802       -1.72930
H          4.97237        4.92130       -2.27893
H          2.88980        4.28920       -3.62088
H          2.09152        5.75289       -3.04091
H          0.92782        6.71150       -0.80116
H          0.76596        8.23618        1.10792
H          3.15484        5.52384        3.47358
H          3.33356        4.00530        1.56806
H          2.54345        9.59000        4.08800
H         -0.22358        4.20359       -1.83815
H          0.08339        2.79766       -0.80412
H          0.49554        2.73186       -2.53505
H          4.39052        2.93339       -0.66361
H          3.42204        1.92574       -1.76167
H          3.02014        2.00164       -0.03476
