18

C          1.49533        0.03611       -0.47836
C          0.58116        0.97151       -1.26198
C         -0.94035        0.88041       -0.94470
C         -1.40192        1.47208        0.39246
C          1.08875        2.42372       -1.20558
S          1.28845       -1.65971       -0.71877
O          1.50192        0.46271        0.93530
H          0.67774        0.62867       -2.30673
H         -1.21298       -0.19020       -0.97186
H         -1.50513        1.36122       -1.76811
H         -0.84782        1.01746        1.22339
H         -2.48009        1.29500        0.55012
H         -1.23728        2.56032        0.43925
H          1.09117        2.80236       -0.17339
H          0.46641        3.09913       -1.81999
H          2.12583        2.46574       -1.57112
H         -0.06070       -2.13947       -0.35157
H          2.15335       -0.13137        1.33561
