35

N          1.89292       -0.55396        1.06177
C          2.82827        0.45639        1.12758
O          2.51186        1.63220        0.94758
C          4.23774       -0.02254        1.42450
C          4.90974       -0.62802        0.15505
C          6.03912       -1.60008        0.40833
S          5.80738       -3.23611        0.16599
O          4.65174       -3.48717       -0.69907
O          7.05736       -3.96083       -0.05249
C          5.17434       -4.02868        1.81007
C          4.63543       -5.50014        1.82009
C          5.56584       -6.70069        1.39799
C          6.90712       -6.93950        2.18107
F          6.68332       -7.01722        3.51088
F          7.41897       -8.13277        1.77859
F          7.81584       -5.99562        1.94221
F          4.81583       -7.83404        1.59445
F          5.85679       -6.61967        0.08166
F          4.21220       -5.77649        3.10141
F          3.54463       -5.58372        1.01209
F          6.12977       -3.94094        2.77327
F          4.09770       -3.27146        2.22927
S          7.59701       -0.99625        0.89243
O          7.44226        0.45711        1.02999
O          8.19139       -1.74463        1.99651
C          8.70166       -1.24875       -0.51385
H          0.98516       -0.32349        0.67442
H          2.18887       -1.52349        1.03273
H          4.20347       -0.79285        2.20700
H          4.83018        0.82109        1.79466
H          5.26958        0.20451       -0.46806
H          4.15819       -1.16431       -0.44220
H          8.30145       -0.70324       -1.37567
H          8.75449       -2.32427       -0.71245
H          9.67900       -0.84755       -0.21668
