14

N          1.09511       -0.29917        0.34499
N          2.54350       -0.26372        0.19471
C          2.87873        0.10961       -1.00571
C          2.34847       -0.48001       -2.36285
C          0.81275       -0.57772       -2.69138
F          0.12311        0.54487       -2.42798
F          0.67239       -0.81390       -4.03912
F          0.21481       -1.61534       -2.07414
F          2.91489        0.16882       -3.43137
F          2.79805       -1.79391       -2.44733
F          2.47575        1.70708       -1.34788
F          4.25372        0.13860       -1.16920
H          0.78929        0.68105        0.41114
H          0.95363       -0.68514        1.27964
