61

N          1.39073       -0.58357       -0.25026
C          2.81194       -0.34955        0.06521
C          3.00277        1.01192        0.72929
C          4.48866        1.26018        1.02789
C          4.93172        2.43962        1.91450
S          4.50645        4.02708        1.05159
O          3.06686        4.05440        0.80017
O          5.12949        5.21139        1.61066
C          5.14174        4.02851       -0.82884
C          6.64865        3.97644       -1.28146
C          7.37006        2.59069       -1.54530
C          6.83864        1.63916       -2.69101
F          6.52411        2.31010       -3.81626
F          7.81735        0.75548       -2.99327
F          5.76420        0.93321       -2.29687
F          8.64621        2.92459       -1.90567
F          7.42073        1.85444       -0.41970
F          6.72482        4.64887       -2.48261
F          7.40217        4.64803       -0.39134
F          4.43383        3.11996       -1.55994
F          4.70116        5.26595       -1.18882
C          4.31191        2.48660        3.29318
C          4.33400        3.63896        4.10738
C          3.87234        3.59766        5.41881
C          3.38678        2.41186        6.00502
C          3.38704        1.26282        5.19549
C          3.83050        1.29747        3.87533
Si         2.87772        2.39926        7.80511
C          4.31755        3.10003        8.83977
C          5.66095        2.41913        8.54947
C          6.79698        2.91356        9.41830
F          7.02452        4.25033        9.27939
F          6.56484        2.69879       10.75235
F          7.97003        2.28246        9.12742
C          1.37112        3.49973        8.10826
C          2.50324        0.64145        8.39400
C          6.60894        2.26090        2.24133
O          6.87097        1.07049        2.46895
O          7.25649        3.31039        2.23449
H          1.28653       -1.43963       -0.79704
H          1.04864        0.17609       -0.84280
H          3.47414       -0.41087       -0.82297
H          3.13907       -1.14726        0.75352
H          2.39387        1.05770        1.64375
H          2.61025        1.79755        0.06722
H          5.03539        1.31255        0.07882
H          4.93677        0.39003        1.53169
H          4.74121        4.56835        3.71495
H          3.91434        4.52136        6.00417
H          3.04226        0.30635        5.59643
H          3.83632        0.37211        3.30305
H          4.05864        3.00350        9.90663
H          4.39684        4.17933        8.63469
H          5.96475        2.57391        7.50355
H          5.60817        1.33104        8.70648
H          1.55890        4.52021        7.74572
H          1.12176        3.55655        9.17811
H          0.49521        3.11112        7.57036
H          3.36100       -0.02973        8.24689
H          1.64863        0.21440        7.85072
H          2.25410        0.64267        9.46514
