43

C          3.63897        1.77606        0.39946
C          3.83930        0.26498        0.26122
C          2.59348       -0.53464        0.72009
C          2.14671       -0.38588        2.16691
S          0.70196        0.40021        2.46743
O          0.49165        0.75942        3.86470
O          0.40525        1.36361        1.40587
C         -0.73314       -0.86822        2.17160
C         -2.21795       -0.46302        2.45768
C         -2.90709        0.72705        1.68406
C         -2.98697        0.67764        0.11521
F         -3.51849       -0.49007       -0.30801
F         -3.81160        1.67731       -0.29486
F         -1.80171        0.85580       -0.47047
F         -4.21282        0.73454        2.11410
F         -2.35118        1.90402        2.03864
F         -3.00632       -1.56946        2.21798
F         -2.34414       -0.15841        3.77612
F         -0.67818       -1.29815        0.86481
F         -0.51826       -1.96435        2.95973
C          2.83699       -1.12860        3.24041
C          3.87632       -0.33333        4.13345
C          4.83303       -1.12974        5.10883
C          4.21799       -2.12863        6.15045
F          3.21659       -1.56938        6.84897
F          3.78266       -3.25594        5.56715
F          5.19409       -2.47919        7.03230
F          5.75432       -1.82871        4.39079
F          5.51306       -0.19235        5.84545
F          4.74033        0.34773        3.31336
F          3.21797        0.57898        4.89196
F          1.99419       -1.71322        4.17745
F          3.60008       -2.17229        2.69487
C          4.18376       -0.11439       -1.18495
H          3.36940        2.04508        1.42876
H          2.81992        2.12112       -0.25033
H          4.55343        2.32403        0.12289
H          4.68995       -0.03161        0.89671
H          2.77382       -1.59939        0.49531
H          1.75267       -0.22549        0.08105
H          3.35836        0.15021       -1.86601
H          4.36360       -1.19594       -1.28330
H          5.08556        0.41168       -1.53402
