43

N          2.66153       -0.02828       -1.06527
C          2.73283       -0.69768        0.14412
O          2.27782       -1.83653        0.25974
C          3.36361        0.09355        1.27910
C          4.83033        0.46499        1.05807
Sb         5.58418        2.02313        2.56442
C          5.41117        0.51800        4.29036
C          5.29572       -0.87442        4.16167
C          5.14335       -1.70719        5.27986
C          5.09018       -1.17550        6.57482
C          5.20850        0.21718        6.71268
C          5.36948        1.03758        5.59138
C          4.89915       -2.06561        7.78087
C          7.75300        1.39586        2.15187
C          8.67148        2.40583        1.84527
C         10.02210        2.12671        1.59558
C         10.50388        0.81041        1.63154
C          9.58726       -0.21088        1.92765
C          8.24240        0.08022        2.18767
C         11.95911        0.49796        1.36705
H          2.45655       -0.60269       -1.87570
H          3.28450        0.75866       -1.21151
H          3.24905       -0.51577        2.18520
H          2.77349        1.01659        1.43809
H          4.99783        0.98698        0.10215
H          5.47913       -0.42250        1.07026
H          6.15150        3.21224        3.77697
H          3.86571        2.52201        2.81158
H          5.79410        3.24434        1.24819
H          5.31581       -1.34236        3.17341
H          5.05739       -2.79063        5.14308
H          5.17117        0.66130        7.71362
H          5.46795        2.12135        5.73101
H          4.87596       -3.12607        7.49237
H          3.95444       -1.84266        8.30245
H          5.70921       -1.93549        8.51581
H          8.32480        3.44550        1.79894
H         10.71785        2.94247        1.36989
H          9.93531       -1.24941        1.96214
H          7.57236       -0.74771        2.43532
H         12.53708        1.41642        1.19118
H         12.08465       -0.14950        0.48429
H         12.42102       -0.02928        2.21708
