41

N          1.22520        0.27544       -0.55451
C          2.50648        0.75221        0.00800
C          3.05924       -0.22411        1.04823
C          4.41405        0.18017        1.64599
Al         5.04640       -1.04992        3.11287
C          3.64552       -1.05208        4.60378
C          3.83351        0.02837        5.49771
C          2.99382        0.28605        6.58321
C          1.89819       -0.55049        6.82059
C          1.66437       -1.61752        5.95934
C          2.51819       -1.87268        4.86717
C          2.09680       -3.06667        4.03286
O          1.02297       -3.63063        4.21723
O          2.91304       -3.52730        3.07354
C          6.84777       -0.52410        3.87069
C          7.35329       -1.27341        5.11859
C          7.56540       -2.76811        4.83453
C          8.63713       -0.65330        5.69820
H          0.76947        1.01927       -1.08593
H          0.59009        0.04491        0.21326
H          2.43290        1.75599        0.47607
H          3.22652        0.84518       -0.82339
H          3.12534       -1.22430        0.58758
H          2.31030       -0.32304        1.85723
H          4.34874        1.20590        2.05837
H          5.17647        0.22825        0.84564
H          5.09686       -2.60389        2.52307
H          4.68250        0.70239        5.34034
H          3.19367        1.13429        7.24386
H          1.23259       -0.37063        7.66787
H          0.81275       -2.28376        6.10374
H          3.79559       -3.03216        2.98114
H          6.82067        0.56132        4.08842
H          7.59739       -0.62870        3.06061
H          6.57580       -1.19997        5.90203
H          8.32806       -2.90843        4.04988
H          6.64163       -3.24135        4.47448
H          7.90436       -3.30935        5.73232
H          9.45663       -0.70024        4.96123
H          8.97603       -1.17311        6.61099
H          8.48268        0.40696        5.95015
