25

O          1.45206       -0.77489       -0.33791
C          2.52679       -0.28451        0.04394
O          3.13558       -0.27317        1.12616
C          3.33588        0.54933       -1.14767
S          2.97214       -0.21431       -2.83412
O          1.68646        0.14475       -3.40027
O          4.17709       -0.08564       -3.64800
C          2.87095       -2.13253       -2.53566
F          3.57648       -2.53878       -1.46364
F          1.61948       -2.57956       -2.45804
F          3.43779       -2.69534       -3.63670
C          2.79351        1.98712       -1.21153
C          3.00396        2.90404        0.06312
C          2.72909        4.43967       -0.18490
F          1.54168        4.66673       -0.77521
F          2.72039        5.07047        1.01768
F          3.69614        5.01191       -0.93043
F          2.15661        2.51968        1.04601
F          4.28231        2.84724        0.53511
F          3.38826        2.69081       -2.26351
F          1.45015        2.02083       -1.43459
C          4.85393        0.48612       -0.95560
H          5.21765       -0.51682       -1.20568
H          5.05390        0.64735        0.10846
H          5.39308        1.21091       -1.57719
