15

Ga         1.14128        0.12876       -0.16703
C          3.06134       -0.36663       -0.71115
C          3.77826        0.77244       -1.43349
C          5.21867        0.57183       -1.90804
O          5.87073        1.43301       -2.50926
N          5.74765       -0.65451       -1.61495
H          0.45900       -1.13479        0.56821
H          0.33369        0.52289       -1.50916
H          1.22609        1.39693        0.83002
H          2.99232       -1.26419       -1.35101
H          3.59112       -0.64857        0.21623
H          3.79917        1.67931       -0.80363
H          3.21274        1.07994       -2.33072
H          5.17120       -1.32749       -1.11966
H          6.69574       -0.86853       -1.89364
