35

N          0.28001        1.55396       -0.48822
C          1.42533        0.60968       -0.60359
C          2.61485        1.21200       -1.30874
As         4.17305       -0.17198       -1.42085
C          5.64719       -1.63660       -1.50528
C          5.83566       -2.42979       -2.64035
C          6.74003       -3.49809       -2.63827
C          7.48261       -3.80790       -1.48715
C          7.29914       -3.00471       -0.35134
C          6.39576       -1.93501       -0.36556
C          8.43209       -4.98314       -1.46813
C          5.29010        1.17173       -2.64205
O          6.07689        2.09394       -1.80334
C          6.72969        3.06517       -2.41120
F          7.65401        2.64277       -3.34236
F          5.92435        3.95789       -3.08995
F          7.41551        3.79337       -1.48647
H         -0.55326        1.04386       -0.17967
H          0.05981        1.90690       -1.42288
H          1.14696       -0.33008       -1.12310
H          1.71353        0.31659        0.42085
H          2.99651        2.10194       -0.78617
H          2.36995        1.47162       -2.35257
H          4.86636        0.41812       -0.09663
H          3.59494       -0.73474       -2.84115
H          3.30108       -1.22912       -0.56088
H          5.24768       -2.21446       -3.54152
H          6.87305       -4.10502       -3.54094
H          7.87324       -3.22566        0.55537
H          6.26202       -1.31854        0.53232
H          9.07614       -4.99938       -2.36089
H          7.88993       -5.94307       -1.44622
H          9.08358       -4.95380       -0.58300
H          4.59032        1.75997       -3.25326
H          5.98425        0.59780       -3.27177
