87

O          5.08314        4.15713       -6.14821
C          5.60114        5.01740       -5.22461
O          5.72885        6.19504       -5.48924
C          5.98527        4.38284       -3.88561
C          5.78237        2.87887       -3.72653
Ta         6.39615        1.82354       -1.89287
C          5.13082        0.73798       -0.45355
C          3.72270        0.74514       -0.55459
C          2.91711       -0.09010        0.22016
C          3.47310       -0.98292        1.16115
C          4.87804       -0.97138        1.29445
C          5.67531       -0.12994        0.51705
Si         2.40163       -2.18351        2.10295
C          2.04705       -3.69033        0.97794
C          1.18571       -4.78756        1.61022
C          0.92810       -5.97334        0.70511
F          2.07596       -6.60085        0.32220
F          0.15738       -6.92202        1.32645
F          0.26879       -5.62939       -0.43725
C          3.27338       -2.80361        3.66668
C          0.74461       -1.39923        2.58467
C          8.58108        1.90713       -1.99282
C          9.31122        3.11475       -2.08048
C         10.68618        3.13423       -2.31259
C         11.42544        1.93745       -2.44845
C         10.71122        0.72825       -2.35185
C          9.32631        0.71665       -2.14581
Si        13.28558        2.00468       -2.68929
C         14.02465        3.02697       -1.25504
C         13.59371        2.51060        0.12457
C         14.11845        3.36166        1.26656
C         13.61680        2.99160        2.70989
C         13.84433        1.53914        3.28108
C         15.29651        0.93054        3.44969
C         16.31737        1.67958        4.38261
C         17.62726        0.86549        4.70959
F         17.36677       -0.21828        5.46007
F         18.25153        0.47690        3.58211
F         18.45937        1.66935        5.40332
F         16.71277        2.83151        3.79106
F         15.72360        1.96777        5.56993
F         15.10492       -0.31441        3.97501
F         15.85353        0.78689        2.21986
F         13.25052        1.50713        4.50371
F         13.18589        0.66035        2.47284
F         14.16091        3.86530        3.60571
F         12.26461        3.16333        2.72489
F         15.49710        3.36081        1.29733
F         13.73924        4.67539        1.10577
C         14.03803        0.26895       -2.67324
C         13.75669        2.87254       -4.30222
H          5.08595        3.27370       -5.71513
H          5.42115        4.92684       -3.11198
H          7.03811        4.66735       -3.72340
H          6.36781        2.30393       -4.48046
H          4.71783        2.59084       -3.83089
H          6.87725        2.40376       -0.27572
H          5.30723        3.09485       -1.28176
H          6.03273        0.16723       -2.56435
H          3.23629        1.42490       -1.26281
H          1.83055       -0.04200        0.08762
H          5.36219       -1.62725        2.02548
H          6.75974       -0.15165        0.67387
H          3.01979       -4.10359        0.66781
H          1.56915       -3.31455        0.05944
H          0.19565       -4.40557        1.90205
H          1.65502       -5.19451        2.51876
H          4.20771       -3.32980        3.42378
H          2.63834       -3.49537        4.23956
H          3.52885       -1.96123        4.32501
H          0.19976       -1.04204        1.69900
H          0.90922       -0.53336        3.24146
H          0.09212       -2.10657        3.11774
H          8.79511        4.07268       -1.95223
H         11.19533        4.10217       -2.37991
H         11.23913       -0.22559       -2.44803
H          8.81567       -0.25151       -2.10700
H         13.69492        4.07002       -1.38078
H         15.12315        3.03241       -1.33878
H         13.94834        1.48283        0.28486
H         12.49629        2.48686        0.20232
H         13.81559       -0.27191       -1.74253
H         15.13160        0.32232       -2.77903
H         13.65266       -0.33600       -3.50640
H         13.31282        3.87668       -4.35528
H         13.39282        2.30365       -5.16938
H         14.84768        2.97822       -4.39741
