24

N          0.84162        0.06225        0.03044
C          2.32272        0.00792       -0.01583
C          2.94685        0.96863        0.98991
C          4.47927        1.04592        0.90686
N          5.02567        1.89864        1.88856
C          6.43052        1.91096        1.80789
C          7.00311        2.69615        2.99595
S          8.82506        2.83684        3.08884
C          9.27656        1.14462        3.57950
H          0.44787       -0.43146       -0.77372
H          0.55308        1.03860       -0.07146
H          2.72730        0.23570       -1.02278
H          2.62500       -1.02622        0.22039
H          2.65925        0.68328        2.01461
H          2.54616        1.98639        0.82489
H          4.73400        1.34900       -0.16397
H          4.88132       -0.02197        0.96184
H          6.86453        2.36980        0.86235
H          6.89454        0.86829        1.81850
H          6.62854        2.26764        3.93955
H          6.64297        3.73608        2.94855
H         10.37182        1.11284        3.66824
H          8.95039        0.41757        2.82440
H          8.83060        0.88407        4.55093
