42

Br         2.86388       -1.87744       -1.08587
B          2.83880       -0.11374       -0.03604
S          0.91985        0.18752        0.25688
O          0.20275        0.48242       -0.98572
O          0.31653       -0.75821        1.20408
C          0.74474        1.85439        1.27270
C          1.21183        3.18488        0.62130
F          0.55732        3.43650       -0.52590
F          0.97519        4.23078        1.46575
F          2.53751        3.16732        0.36837
F         -0.58864        1.98280        1.52990
F          1.39843        1.73395        2.46389
C          3.65698       -0.22514        1.33239
C          4.72852        0.65619        1.57650
C          5.50270        0.57862        2.73419
C          5.21252       -0.39591        3.70013
C          4.14589       -1.28346        3.48592
C          3.39062       -1.19637        2.31842
C          6.05921       -0.49459        4.93603
C          5.85434        0.60291        6.05099
C          4.44338        0.78620        6.72886
C          3.80237       -0.35301        7.62667
C          4.61665       -0.88308        8.86587
C          3.74920       -1.67377        9.91880
F          3.02239       -2.63913        9.32848
F          4.58442       -2.25248       10.80885
F          2.92378       -0.85534       10.59434
F          5.58680       -1.72738        8.44104
F          5.18877        0.15362        9.53314
F          2.64219        0.18602        8.10765
F          3.48153       -1.40990        6.84413
F          4.54498        1.89278        7.52361
F          3.52938        1.04491        5.76326
F          6.75668        0.38862        7.05671
F          6.14201        1.81515        5.49511
F          5.91512       -1.71090        5.56358
F          7.40255       -0.37492        4.61805
H          3.17295        0.78808       -0.76436
H          4.96449        1.41840        0.83098
H          6.33769        1.26424        2.88240
H          3.91738       -2.04844        4.22770
H          2.56915       -1.89679        2.16060
