53

O          7.23757        0.80280        4.26851
C          6.11265        0.82432        5.02654
O          5.99043        0.04831        5.95462
C          5.04438        1.83885        4.63532
C          5.50097        2.99920        3.75657
Ta         5.92087        3.18665        1.63036
C          4.47628        3.51505       -0.11795
C          3.11503        4.27696        0.01316
C          3.08295        5.66205        0.73480
F          3.93368        6.54993        0.19140
F          1.83034        6.18998        0.64129
F          3.35501        5.54360        2.05533
F          2.56319        4.50858       -1.23025
F          2.23105        3.48675        0.70334
F          5.23005        4.26539       -1.05698
F          4.07411        2.38848       -0.84284
C          8.05544        2.68438        1.60074
C          8.81679        3.76738        2.09776
C         10.21704        3.74726        2.12037
C         10.92793        2.62395        1.65914
C         10.17597        1.52848        1.18035
C          8.78123        1.56361        1.14504
Si        12.80715        2.57119        1.64250
C         13.41692        1.29269        2.92277
C         14.94286        1.15333        2.98487
C         15.43507        0.15220        4.00877
F         14.98346       -1.10997        3.76663
F         16.80337        0.08121        4.01704
F         15.05608        0.47128        5.27724
C         13.42108        2.05536       -0.07288
C         13.53698        4.26056        2.08241
H          7.16932        1.50063        3.57532
H          4.58674        2.15765        5.58613
H          4.26977        1.26551        4.09831
H          6.24698        3.62915        4.29035
H          4.62382        3.67246        3.58811
H          5.79730        4.96387        1.39088
H          4.57084        2.05961        1.73947
H          6.09259        1.95313        0.39149
H          8.31273        4.67381        2.46066
H         10.75644        4.62053        2.49888
H         10.69020        0.63556        0.80872
H          8.23271        0.71122        0.73701
H         12.95800        0.31986        2.68617
H         13.02329        1.58602        3.90853
H         15.42551        2.10940        3.23861
H         15.35717        0.82930        2.01805
H         13.01801        1.07477       -0.36305
H         14.51864        1.99726       -0.11951
H         13.09163        2.78293       -0.82807
H         13.26082        4.56947        3.10085
H         13.18062        5.03548        1.38892
H         14.63514        4.24526        2.02359
