28

O          1.68264       -0.26260       -1.37920
C          2.94036        0.02398       -0.98594
O          3.84952       -0.65509       -1.44229
C          3.23583        1.22852       -0.12396
C          4.47534        1.81778       -0.45971
C          4.96217        2.96845        0.14201
C          4.19526        3.56673        1.15288
C          2.99127        3.00105        1.53088
C          2.46119        1.82075        0.92929
N          1.26900        1.43355        1.48392
S          0.32934        0.21529        1.40546
O         -0.50088        0.16217        0.18372
O          0.82504       -1.06722        1.89653
C         -0.92289        0.77686        2.70014
C         -0.52369        0.71767        4.22092
C          0.73407        1.50910        4.72685
F          0.69642        2.79915        4.34160
F          0.71983        1.48984        6.08940
F          1.88150        0.95230        4.32927
F         -1.59174        1.22583        4.92430
F         -0.36039       -0.57453        4.60156
F         -1.35234        2.04066        2.43129
F         -2.00595       -0.05486        2.59144
H          0.95353        0.19074       -0.88561
H          5.04915        1.31657       -1.23911
H          5.91788        3.39215       -0.16888
H          4.54363        4.47367        1.65247
H          2.39311        3.44388        2.32677
