28

C          1.37577        1.88465       -0.43208
C          2.88280        1.60527       -0.47724
C          3.27836        0.49751       -1.46123
B          4.88512        0.18474       -1.60119
C          5.58309       -0.26512       -0.19459
C          6.28541        0.71273        0.54865
C          6.88722        0.45913        1.78042
C          6.80568       -0.81621        2.34773
C          6.11085       -1.80594        1.66212
C          5.50777       -1.55370        0.41354
C          4.80630       -2.76096       -0.16997
O          4.59542       -3.77690        0.48238
O          4.42251       -2.71237       -1.45715
S          5.88099        1.73760       -2.31720
H          1.12246        2.68774        0.27941
H          0.81371        0.98502       -0.13376
H          1.00064        2.18669       -1.42348
H          3.23071        1.33774        0.53504
H          3.42124        2.52969       -0.74567
H          2.88283        0.75783       -2.46226
H          2.75191       -0.43337       -1.17380
H          5.05434       -0.66728       -2.49306
H          6.35868        1.72016        0.13146
H          7.42399        1.26004        2.29642
H          7.27729       -1.03504        3.30834
H          6.01230       -2.81252        2.07084
H          4.67774       -1.82089       -1.85992
H          5.11824        1.88659       -3.42450
