32

C          1.25598       -0.09312        0.35714
C          2.67387        0.16614       -0.13120
Sb         2.83681        0.76699       -2.33913
C          2.42029        2.99278       -1.79767
C          0.94994        3.36617       -1.84538
C          0.71229        4.87387       -1.72421
S         -1.06537        5.39498       -1.68001
C          5.05796        1.16004       -1.91867
C          5.83592        1.84570       -3.02944
C          7.33359        2.03666       -2.73000
H          1.21117       -0.46447        1.39911
H          0.74157       -0.83655       -0.27380
H          0.64462        0.82270        0.31879
H          3.30785       -0.73045       -0.03897
H          3.15274        0.97779        0.43976
H          3.19046       -0.95053       -2.79742
H          1.06202        0.49636       -2.58033
H          3.01494        1.28340       -4.06817
H          3.00733        3.56101       -2.53804
H          2.84995        3.17270       -0.79850
H          0.39187        2.85250       -1.04523
H          0.49946        3.01396       -2.79273
H          1.21206        5.41653       -2.53948
H          1.11556        5.26078       -0.77581
H         -1.45622        4.66509       -2.75138
H          5.47914        0.16754       -1.68478
H          5.07846        1.76168       -0.99395
H          5.38852        2.83353       -3.23969
H          5.72827        1.27378       -3.96816
H          7.48213        2.64553       -1.82383
H          7.86616        2.53438       -3.55923
H          7.82483        1.06694       -2.55106
