43

C          3.06928       -2.08215        2.53223
C          3.24575       -0.63229        2.07156
C          4.37111       -0.47014        1.04532
C          4.56836        0.96470        0.52232
C          5.12982        1.94489        1.54752
As         7.14919        1.55510        2.01759
C          7.86368        2.80364        0.45082
C          9.20402        2.27204       -0.02035
C          9.59392        2.60412       -1.46930
C         10.92177        1.96884       -1.89845
C          7.21867        3.03000        3.51857
C          7.43109        2.37484        4.87008
C          7.89070        3.31631        5.99325
H          2.25098       -2.18697        3.26115
H          3.98972       -2.45497        3.00619
H          2.84589       -2.74610        1.68150
H          3.45513        0.00207        2.94700
H          2.29711       -0.26341        1.64046
H          4.16303       -1.13988        0.18997
H          5.31890       -0.81544        1.48838
H          3.60673        1.31944        0.09440
H          5.27539        0.91097       -0.32699
H          4.59763        1.89953        2.51096
H          5.07725        2.98071        1.17566
H          7.20737        0.36702        0.89238
H          6.66011        0.46640        3.13243
H          8.70140        1.21095        2.41405
H          7.90770        3.85443        0.77940
H          7.09892        2.70953       -0.33756
H          9.18825        1.16516        0.08299
H         10.00725        2.61595        0.65487
H          9.64629        3.69906       -1.60134
H          8.78802        2.25637       -2.13868
H         11.75365        2.32684       -1.27153
H         11.17239        2.19384       -2.94729
H         10.88320        0.87378       -1.79042
H          6.30863        3.65154        3.48970
H          8.08398        3.65153        3.23637
H          8.18524        1.57224        4.74759
H          6.50604        1.86146        5.18196
H          8.84109        3.80627        5.72813
H          8.04605        2.77700        6.94411
H          7.15276        4.11363        6.17657
