28

F          2.56776       -1.31418        0.15545
C          2.52470       -0.01434       -0.24186
C          2.65661        0.96412        0.89192
C          3.24441        0.55635        2.08845
C          3.42158        1.47184        3.17017
C          2.97668        2.80590        2.94202
C          2.39245        3.18841        1.73865
C          2.21873        2.27902        0.68548
C          1.98120        4.61800        1.53230
F          1.73053        5.28186        2.69556
F          2.94472        5.35135        0.88106
F          0.85201        4.73717        0.76743
N          3.96113        1.19553        4.38703
C          4.39068       -0.02446        4.71543
C          4.98768       -0.06386        6.15765
C          4.07407        0.50145        7.29906
F          3.95571        1.83813        7.25701
F          2.84152       -0.04397        7.27331
F          4.62988        0.18757        8.50755
F          5.29334       -1.35145        6.51249
F          6.15147        0.65528        6.20578
F          3.41506       -1.09012        4.68283
F          5.44051       -0.59648        3.89629
F          3.52447        0.13108       -1.17453
F          1.35292        0.14096       -0.93590
H          3.56567       -0.47574        2.20693
H          3.09967        3.52187        3.75404
H          1.74831        2.57835       -0.24855
