48

S          3.47897       -3.01239       -1.38062
C          3.94695       -1.33167       -0.76873
C          4.37525       -0.46708       -1.95647
C          4.76408        0.94622       -1.55647
Sb         5.40915        2.20587       -3.33554
C          3.16086        2.81764       -3.70887
F          2.39948        2.92516       -2.55257
F          3.02665        4.04598       -4.32869
F          2.45732        1.93533       -4.50956
C          7.62871        1.75972       -3.11137
C          8.19699        0.93884       -2.12291
C          9.57655        0.73807       -2.03568
C         10.43112        1.36360       -2.95733
C          9.88669        2.18460       -3.95573
C          8.50431        2.37170       -4.01843
C         11.91498        1.16596       -2.85474
C         12.49474       -0.23833       -3.28034
C         12.21244       -0.80446       -4.72371
C         12.74551       -0.06795       -6.02102
C         14.29181        0.19260       -6.15820
C         14.75736        0.54151       -7.62395
F         14.01067        1.52763       -8.15326
F         16.04138        0.95743       -7.57516
F         14.69738       -0.53319       -8.43001
F         14.64565        1.23648       -5.37191
F         14.99094       -0.90856       -5.77676
F         12.37807       -0.87295       -7.06279
F         12.10072        1.11492       -6.15625
F         12.73866       -2.06480       -4.74772
F         10.87120       -0.90761       -4.89240
F         13.85219       -0.22813       -3.11160
F         11.98320       -1.17500       -2.43030
F         12.60894        2.10300       -3.58589
F         12.34056        1.30112       -1.54307
H          3.14218       -3.54520       -0.18229
H          4.76912       -1.43797       -0.04692
H          3.08136       -0.88858       -0.25782
H          3.55196       -0.43315       -2.68967
H          5.21328       -0.96384       -2.47631
H          5.59029        0.96626       -0.82898
H          3.92018        1.50430       -1.12758
H          5.84074        3.22437       -4.73419
H          5.16211        0.77438       -4.39598
H          5.51861        3.61214       -2.22045
H          7.55865        0.44121       -1.38871
H          9.99138        0.10811       -1.24704
H         10.54259        2.68313       -4.66974
H          8.08962        3.02195       -4.79692
