32

C          2.82146       -1.46653        0.62775
S          4.50422       -1.41373       -0.05318
C          5.40503       -0.66493        1.34379
C          5.11454        0.83737        1.50014
C          5.70769        1.41229        2.81293
S          5.10993        3.17100        2.86656
O          6.21730        4.05028        2.42267
O          3.81256        3.37238        2.24969
C          4.90900        3.71333        4.72243
C          5.36913        5.19827        4.95035
F          6.70280        5.33833        4.86374
F          4.77584        6.03559        4.07923
F          5.00256        5.57897        6.20370
F          3.61809        3.64723        5.08214
F          5.66699        2.93402        5.53163
C          4.99688        0.60928        4.04356
O          3.81907        0.97928        4.23811
O          5.69770       -0.27872        4.56234
C          7.24533        1.36024        2.90933
C          8.05387        1.48995        1.61916
O          8.70300        0.57269        1.14988
O          8.04396        2.69678        1.00922
H          2.18891       -1.93932       -0.13444
H          2.43290       -0.46187        0.83810
H          2.79125       -2.06756        1.54629
H          6.46694       -0.84370        1.12533
H          5.15783       -1.21600        2.26109
H          4.03090        1.00364        1.53708
H          5.50355        1.36887        0.61718
H          7.45364        0.37501        3.34890
H          7.60512        2.10984        3.63053
H          7.42456        3.30132        1.50208
