76

F          0.36989       -5.36001        1.59632
C          0.30028       -4.07694        1.09748
C         -1.19573       -3.85295        0.71495
F         -1.62008       -4.77931       -0.17826
F         -1.99253       -3.93348        1.80212
F         -1.37292       -2.63168        0.15420
C          0.86361       -3.06218        2.06231
C          2.30218       -3.35741        2.51651
C          2.82302       -2.26528        3.46772
Ga         1.72909       -2.10361        5.18590
C          0.84378       -0.27748        5.35497
C         -0.37965       -0.15608        6.04672
C         -1.07766        1.05103        6.12473
C         -0.59197        2.21916        5.49857
C          0.62821        2.11079        4.80295
C          1.32116        0.89525        4.74002
Si        -1.52960        3.83117        5.66531
C         -1.51793        4.35549        7.50211
C         -0.10746        4.43053        8.09776
C         -0.07617        4.83835        9.55364
F         -0.74760        3.96809       10.35920
F          1.20104        4.90962       10.03205
F         -0.63472        6.07067        9.76429
C         -0.72932        5.20344        4.63509
C         -3.34224        3.64935        5.15150
C          2.74977       -2.66010        6.85467
C          4.15233       -2.68377        6.98306
C          4.78880       -3.19550        8.11939
C          4.04838       -3.70569        9.20602
C          2.64376       -3.66839        9.09676
C          2.02224       -3.16572        7.95049
Si         4.90271       -4.44296       10.69775
C          6.06618       -3.13687       11.46598
C          6.81092       -3.61119       12.71831
C          7.76241       -2.58848       13.30061
F          7.13488       -1.43941       13.67714
F          8.39386       -3.07010       14.41728
F          8.74593       -2.23123       12.42617
C          3.64846       -4.98227       12.01027
C          5.94831       -5.94448       10.19886
F          0.99485       -4.08664       -0.10183
H          0.21071       -3.02883        2.95003
H          0.80707       -2.07681        1.57385
H          2.94449       -3.46927        1.62407
H          2.30687       -4.33132        3.03157
H          2.84195       -1.29745        2.93612
H          3.87117       -2.49242        3.72357
H          0.48074       -3.13888        5.15172
H         -0.80994       -1.04191        6.52517
H         -2.02489        1.08005        6.67622
H          1.04509        2.98701        4.29562
H          2.26180        0.86489        4.17974
H         -2.11735        3.62254        8.06585
H         -2.02870        5.32674        7.60522
H          0.51929        5.15959        7.56205
H          0.40008        3.45689        8.02660
H          0.31766        5.37949        4.91994
H         -1.27597        6.14983        4.76006
H         -0.74106        4.94765        3.56593
H         -3.83523        2.84829        5.72064
H         -3.42138        3.39353        4.08545
H         -3.90334        4.58020        5.32266
H          4.77580       -2.30740        6.16510
H          5.88460       -3.20406        8.15266
H          2.02267       -4.05133        9.91285
H          0.92890       -3.18935        7.89642
H          5.46423       -2.24465       11.69844
H          6.78729       -2.82822       10.69260
H          7.41653       -4.50707       12.51294
H          6.11144       -3.87375       13.52624
H          3.03936       -4.13594       12.35867
H          4.14947       -5.42180       12.88544
H          2.96341       -5.74257       11.60872
H          6.69336       -5.66864        9.43875
H          5.30577       -6.72160        9.76080
H          6.48056       -6.39064       11.05242
