33

C          1.17566       -1.33287        1.87421
C          2.58738       -1.59557        1.33126
C          2.77867       -1.17302       -0.13304
Al         4.57608       -1.47479       -0.97281
S          5.82084        0.28772        0.26926
O          5.39051        1.64222       -0.13247
O          5.89582        0.00748        1.72154
C          7.73288        0.30699       -0.32017
C          8.77058       -0.28753        0.66102
F          8.46675       -1.56265        0.98238
F         10.02137       -0.30361        0.10267
F          8.84970        0.44069        1.79044
F          7.80644       -0.40943       -1.48721
F          8.10933        1.58772       -0.58408
C          5.56601       -3.19116       -0.59310
C          5.63438       -4.14863       -1.79431
C          6.55555       -5.34122       -1.52945
S          6.81411       -6.48109       -2.95283
H          1.06876       -1.64721        2.92539
H          0.41789       -1.87070        1.28175
H          0.93237       -0.26033        1.81826
H          2.81739       -2.66988        1.44296
H          3.32002       -1.07047        1.96507
H          2.53320       -0.10116       -0.24521
H          2.04184       -1.70266       -0.77013
H          4.69656       -0.99780       -2.51593
H          5.12887       -3.70730        0.27990
H          6.59469       -2.92637       -0.29295
H          5.98898       -3.62092       -2.69431
H          4.62803       -4.52862       -2.04719
H          6.20899       -5.92736       -0.66635
H          7.57154       -4.98832       -1.29637
H          5.51144       -6.80874       -3.12708
