12

Br         0.94037       -0.30744        1.03594
C          2.83148        0.08933        1.36123
S          3.40646        1.41672        0.53075
O          2.47993        2.53268        0.44822
O          4.80617        1.65418        0.87160
F          3.57336        1.01332       -1.15888
C          3.68859       -1.14871        1.42081
N          3.76737       -2.03974        0.23285
H          3.34416       -1.76943        2.26467
H          4.71055       -0.81749        1.66030
H          4.05454       -1.45642       -0.55928
H          2.80799       -2.31726        0.00306
