49

N          0.66410        1.37763       -0.06039
P          1.51351       -0.08877        0.53104
C          3.39272        1.03859        0.69484
C          3.72144        2.00229        1.85843
C          4.01199        1.40774        3.28782
C          5.24371        0.44998        3.50150
F          6.36665        0.94926        2.94786
F          5.46097        0.33856        4.84109
F          5.02672       -0.77952        3.02639
F          4.23258        2.48148        4.11424
F          2.91627        0.75370        3.75310
F          4.80681        2.81446        1.57442
F          2.65190        2.84832        2.04064
F          4.52983        0.22596        0.56986
F          3.45601        1.85939       -0.44174
C          2.39401       -1.65856        1.18785
C          3.22804       -2.44307        0.38126
C          3.78813       -3.63119        0.84730
C          3.51669       -4.06487        2.15341
C          2.67747       -3.29519        2.97673
C          2.13407       -2.11096        2.48833
C          4.10280       -5.33985        2.67328
C          3.12675       -6.57208        2.81780
C          2.30277       -7.07489        1.56938
C          3.00713       -7.64083        0.27272
C          3.97031       -8.89490        0.33009
C          3.43017      -10.25265        0.91482
F          2.25158      -10.59263        0.36037
F          4.32833      -11.22115        0.62597
F          3.28894      -10.20153        2.24753
F          4.30352       -9.14770       -0.96974
F          5.10115       -8.57757        1.00163
F          1.99022       -7.97276       -0.57481
F          3.72567       -6.65021       -0.30868
F          1.48880       -8.07863        2.02644
F          1.51207       -6.06254        1.14116
F          3.82837       -7.64072        3.30232
F          2.18022       -6.25353        3.74822
F          5.15771       -5.78006        1.90451
F          4.59835       -5.17711        3.95740
H          1.20571        1.83950       -0.79230
H          0.56017        2.05091        0.70163
H          2.02972       -0.34353       -0.81836
H          1.14646        0.25574        1.90464
H          0.33289       -0.92879        0.33891
H          3.45459       -2.10292       -0.63292
H          4.44968       -4.21487        0.20791
H          2.46828       -3.61739        3.99754
H          1.49232       -1.50614        3.13635
