39

N          5.69775       -1.46372        0.80907
C          5.49380       -0.13778        1.42062
C          5.93092        0.99048        0.47521
C          5.10227        1.16090       -0.80896
Al         5.80469        2.67252       -1.92874
S          3.87905        3.48203       -3.29029
O          2.72022        3.79181       -2.42919
O          4.27787        4.49528       -4.29013
C          3.20229        1.99491       -4.41316
C          2.29470        2.40143       -5.60789
C          1.50442        1.23610       -6.30656
F          2.33526        0.24398       -6.69350
F          0.56063        0.71260       -5.50076
F          0.87975        1.70768       -7.41617
F          1.35820        3.29719       -5.18814
F          3.05547        2.97970       -6.57736
F          4.29234        1.32455       -4.91031
F          2.51666        1.12203       -3.61346
C          7.38918        2.30446       -3.10167
C          7.53191        0.89502       -3.68965
C          8.84585        0.60323       -4.42667
N          9.02587        1.48906       -5.59055
H          5.46794       -2.20234        1.47530
H          6.68703       -1.58057        0.57776
H          6.02984       -0.02166        2.38791
H          4.41673       -0.03139        1.63327
H          6.99891        0.82059        0.22984
H          5.91636        1.92946        1.05540
H          4.05524        1.37912       -0.53446
H          5.07966        0.21031       -1.36563
H          5.90125        4.08873       -1.14050
H          8.27042        2.51755       -2.46284
H          7.43746        3.05895       -3.90327
H          6.69851        0.69221       -4.38615
H          7.43110        0.13560       -2.89444
H          8.86591       -0.47473       -4.69668
H          9.69334        0.77747       -3.73996
H          8.18209        1.46569       -6.16786
H          9.79017        1.15548       -6.17892
