44

C          1.03152        0.17472       -0.41373
C          2.54731        0.14547       -0.19258
C          3.02333       -1.07967        0.59638
C          4.54066       -1.15425        0.80520
C          4.98042       -2.41386        1.57226
C          6.48947       -2.56442        1.79349
Ta         7.18547       -4.25200        2.99606
C          5.80118       -5.74475        3.88711
C          4.36507       -5.21595        3.91151
C          3.32939       -6.17905        4.51244
C          1.89316       -5.70626        4.29304
N          0.93849       -6.67746        4.81913
C         -0.42272       -6.54928        4.62482
N         -1.07118       -5.55546        4.11581
N         -1.13821       -7.68492        5.05336
I          9.80508       -3.43768        3.53877
H          0.71716        1.06258       -0.98225
H          0.48821        0.18318        0.54335
H          0.69451       -0.71285       -0.97074
H          2.86040        1.06317        0.33438
H          3.06126        0.17013       -1.16893
H          2.68657       -1.99521        0.07731
H          2.51968       -1.09457        1.57995
H          4.88497       -0.25449        1.34593
H          5.04937       -1.13186       -0.17521
H          4.60906       -3.30208        1.03314
H          4.45783       -2.41464        2.54587
H          6.87831       -1.68681        2.35565
H          7.02711       -2.57708        0.82583
H          6.31265       -5.01214        1.63732
H          6.63379       -3.61407        4.60988
H          8.07606       -5.72584        2.48531
H          6.15023       -5.94325        4.91873
H          5.83142       -6.69132        3.32665
H          4.04862       -4.98719        2.87796
H          4.32294       -4.26088        4.46605
H          3.51785       -6.31298        5.59113
H          3.45456       -7.17190        4.04263
H          1.72989       -5.53756        3.21046
H          1.73174       -4.73813        4.79667
H          1.27904       -7.63513        4.82879
H         -0.42822       -4.85952        3.72920
H         -0.83884       -8.03350        5.96160
H         -2.13514       -7.48522        5.04236
