56

C          5.48734       -1.84122        1.96569
C          5.00108       -0.69471        1.07540
C          5.29635       -0.93109       -0.40897
C          4.78748        0.22679       -1.27531
C          5.26571        0.28528       -2.74815
S          4.57712       -1.25902       -3.57544
O          5.28863       -2.44853       -3.14009
O          3.11581       -1.24482       -3.44127
C          4.87516       -1.18150       -5.50940
C          3.62059       -1.69498       -6.29907
F          3.23992       -2.91770       -5.88117
F          2.57832       -0.85024       -6.20525
F          3.93957       -1.79586       -7.62003
F          5.12734        0.07168       -5.95057
F          5.89309       -2.00044       -5.82859
C          4.70947        1.54724       -3.40977
C          5.58920        2.52869       -3.90115
C          5.10079        3.71230       -4.45285
C          3.71901        3.97149       -4.55478
C          2.84794        2.98320       -4.06183
C          3.32960        1.80298       -3.49082
Si         3.10215        5.57351       -5.31676
C          4.00975        5.88477       -6.96459
C          3.90956        4.72961       -7.96785
C          4.56471        5.02452       -9.29959
F          5.89646        5.28828       -9.18374
F          4.44426        3.97827      -10.16625
F          4.00840        6.10898       -9.92420
C          1.24024        5.48832       -5.64410
C          3.47017        7.05027       -4.19233
C          6.84908        0.23534       -2.91233
O          7.22998       -0.28202       -3.98810
O          7.48707        0.78399       -1.98638
H          5.27288       -1.65297        3.02841
H          6.57325       -1.98450        1.86199
H          5.00386       -2.79024        1.68832
H          5.48076        0.24702        1.39256
H          3.91575       -0.55064        1.22083
H          4.84150       -1.88156       -0.72520
H          6.38216       -1.02936       -0.55471
H          5.17941        1.16836       -0.85745
H          3.68748        0.28022       -1.23495
H          6.66445        2.35778       -3.84487
H          5.82579        4.44658       -4.81774
H          1.76589        3.12683       -4.12217
H          2.62332        1.05441       -3.13335
H          5.06928        6.09053       -6.74370
H          3.60175        6.80795       -7.40777
H          2.86239        4.47578       -8.19213
H          4.38266        3.81891       -7.57197
H          0.97589        4.64495       -6.29765
H          0.89071        6.41288       -6.12662
H          0.67697        5.36900       -4.70773
H          4.54543        7.11681       -3.97406
H          2.94389        6.94784       -3.23281
H          3.15680        7.99805       -4.65485
