38

I          1.34231       -0.86446        0.92897
Nb         4.04807       -0.62581        0.60905
C          5.40362        1.11166        1.04276
C          4.75763        2.23660        1.60980
C          5.45680        3.37987        2.00082
C          6.85079        3.45803        1.85120
C          7.50811        2.36266        1.29867
C          6.79658        1.21711        0.89590
C          8.99420        2.40557        1.08577
F          9.59522        3.47694        1.68405
F          9.62684        1.29200        1.56686
F          9.32942        2.47686       -0.24248
C          4.74544        4.57742        2.56189
F          3.42206        4.37022        2.78564
F          5.28291        4.98933        3.75671
F          4.82960        5.66913        1.73077
C          5.44827       -0.76116       -1.10700
C          5.07027       -1.53718       -2.36726
C          3.99043       -0.83305       -3.20060
C          3.68899       -1.52812       -4.53117
C          2.64852       -0.78892       -5.37765
H          4.20796       -2.33624        0.08259
H          4.63623       -0.59575        2.29854
H          3.62244        0.74507       -0.41193
H          3.67175        2.22634        1.74361
H          7.39872        4.34794        2.15641
H          7.36352        0.39303        0.45621
H          6.21871       -1.32682       -0.52901
H          5.89305        0.20578       -1.38650
H          4.71821       -2.54686       -2.09653
H          5.96125       -1.67559       -3.01442
H          4.30846        0.20660       -3.39646
H          3.06424       -0.75296       -2.60594
H          3.34136       -2.55677       -4.33371
H          4.62599       -1.63080       -5.10690
H          1.69364       -0.69561       -4.83850
H          2.44824       -1.30693       -6.32789
H          2.98857        0.23032       -5.61771
