24

S          4.75646        1.54230        2.65779
C          4.49575        0.72134        1.03178
C          5.09416       -0.68316        1.08680
C          4.86134       -1.41748       -0.23979
C          5.47963       -2.81592       -0.43756
C          5.09992       -3.85472        0.63024
C          3.58393       -4.18965        0.90689
F          2.84015       -3.07898        1.13906
F          3.01722       -4.88960       -0.08076
F          3.49918       -4.95414        2.03733
F          5.66168       -5.07646        0.35930
F          5.58967       -3.48254        1.88778
C          5.02187       -3.33296       -1.92689
O          5.95910       -3.78735       -2.61557
O          3.80898       -3.16575       -2.16855
S          7.31384       -2.76054       -0.54754
H          4.17611        2.72563        2.34728
H          4.97902        1.32085        0.24797
H          3.41737        0.67451        0.82776
H          4.64137       -1.23224        1.92450
H          6.17306       -0.60672        1.29910
H          5.27390       -0.80656       -1.05808
H          3.78525       -1.51282       -0.44634
H          7.52398       -2.22937        0.69287
