69

N          9.65039        4.18569        5.47399
C          8.93732        3.90441        4.20956
C          7.89221        2.79724        4.38215
C          7.09136        2.50066        3.11056
In         5.55208        0.83885        3.28084
C          3.92101        1.62370        4.62859
C          3.92043        2.95377        5.09835
C          2.91512        3.45799        5.93098
C          1.82930        2.65353        6.33502
C          1.80294        1.32963        5.85127
C          2.82282        0.83676        5.02932
Si         0.56456        3.26168        7.57419
C          0.05844        5.07831        7.26583
C         -0.76643        5.32780        5.99579
C         -1.28362        6.75463        5.92081
C         -2.08462        7.16791        4.63383
C         -3.38573        6.38035        4.21792
C         -4.65725        6.32098        5.16072
C         -5.33845        7.67359        5.59102
C         -6.79523        7.50548        6.17173
F         -6.82901        6.57061        7.13988
F         -7.18064        8.68450        6.70256
F         -7.67389        7.17123        5.21101
F         -4.59390        8.26780        6.55263
F         -5.43506        8.50766        4.52327
F         -5.58651        5.60452        4.46132
F         -4.34211        5.62037        6.27860
F         -3.79410        6.90899        3.03274
F         -3.04409        5.07957        4.00049
F         -2.43463        8.48417        4.73866
F         -1.24214        7.04031        3.57026
F         -2.09063        7.04491        7.00199
F         -0.23978        7.65169        5.96874
C         -0.99831        2.19172        7.53470
C          1.28379        3.22731        9.32644
C          4.59948        0.51734        1.23156
C          3.24055        1.16333        0.92477
C          3.18185        2.67060        0.68790
O          2.17149        3.22736        0.24539
N          4.32214        3.36777        0.96769
H         10.41560        4.84282        5.31098
H         10.08479        3.32327        5.81047
H          9.61418        3.62122        3.37709
H          8.42938        4.83326        3.89893
H          7.22198        3.08546        5.20960
H          8.40808        1.87979        4.72254
H          7.77853        2.22222        2.29205
H          6.59867        3.43619        2.78456
H          6.25502       -0.67336        3.89913
H          4.73642        3.62651        4.81302
H          2.98501        4.49669        6.27495
H          0.97524        0.66642        6.12401
H          2.75372       -0.20423        4.69511
H          0.96645        5.70060        7.25143
H         -0.51838        5.39588        8.14995
H         -1.63760        4.65884        5.95845
H         -0.17253        5.13293        5.09066
H         -1.44458        2.15221        6.53092
H         -1.75585        2.58066        8.23145
H         -0.77371        1.15811        7.83389
H          2.17441        3.86877        9.39227
H          1.59437        2.20750        9.59414
H          0.55629        3.57383       10.07576
H          4.48031       -0.57622        1.17592
H          5.32656        0.77415        0.44235
H          2.52667        0.98366        1.74801
H          2.75516        0.73396        0.02877
H          5.07641        2.92316        1.48513
H          4.25890        4.37909        0.96845
