38

C          0.30882        0.22622       -5.94247
C          0.35232        1.09390       -4.67630
C          1.73149        1.15046       -3.98993
Nb         2.59652       -0.75979       -3.09992
C          1.31758       -2.46733       -2.66425
C          0.83766       -2.89287       -1.28161
C         -0.24808       -3.98761       -1.25187
C          0.21270       -5.33811       -1.79854
N         -0.87305       -6.31120       -1.72915
C         -0.71176       -7.62445       -2.12662
N          0.30398       -8.16845       -2.70744
N         -1.83664       -8.42089       -1.82563
I          5.18085       -1.65503       -2.55905
C         -0.15323        2.51040       -5.01613
H          0.56796       -0.81991       -5.73420
H          1.03953        0.59141       -6.68310
H         -0.68999        0.25537       -6.40915
H         -0.36505        0.66457       -3.95023
H          1.67319        1.90444       -3.19294
H          2.48585        1.49876       -4.72421
H          3.12039        0.51669       -1.99452
H          1.32139       -0.13373       -2.04644
H          2.72850       -0.83535       -4.89483
H          1.82841       -3.29762       -3.19798
H          0.45795       -2.15936       -3.30261
H          0.44139       -2.00645       -0.76203
H          1.70010       -3.23412       -0.68191
H         -1.12297       -3.64950       -1.83333
H         -0.59213       -4.13155       -0.20948
H          1.09744       -5.68565       -1.22931
H          0.52451       -5.23054       -2.84885
H         -1.51826       -6.17519       -0.95574
H          1.09266       -7.51828       -2.75665
H         -2.71947       -7.98013       -2.07682
H         -1.73866       -9.32835       -2.27487
H          0.52210        2.99434       -5.74132
H         -0.18244        3.14377       -4.11702
H         -1.16549        2.49183       -5.45727
