63

C          0.99657        4.54571       -4.33735
O          2.39635        4.71289       -4.39147
C          3.06646        3.51031       -4.75922
C          4.56879        3.70094       -4.69198
O          4.99890        3.67651       -3.35079
C          6.44382        3.81634       -3.23739
C          6.88888        3.80684       -1.80108
Ga         8.91584        4.00108       -1.51505
C          9.74745        2.12162       -1.59599
C          9.01653        1.06980       -2.18483
C          9.45237       -0.26008       -2.18487
C         10.65558       -0.60071       -1.56078
C         11.40047        0.40113       -0.93824
C         10.95660        1.73918       -0.96706
C         11.84462        2.76196       -0.31633
O         12.28905        3.75696       -0.83812
O         12.20247        2.46203        0.98616
C          9.66939        5.20015       -2.97228
C          9.03913        6.41648       -3.30995
C          9.49234        7.23857       -4.34262
C         10.62348        6.86080       -5.08522
C         11.28678        5.66751       -4.76282
C         10.80962        4.86304       -3.72575
C         11.08582        7.70720       -6.23212
C         11.76092        9.09425       -5.90311
C         13.03051        9.15372       -4.97200
C         14.39513        8.46618       -5.38980
C         15.06691        8.88585       -6.75091
C         16.59015        8.49264       -6.86116
F         16.78864        7.20137       -6.54060
F         16.98869        8.68092       -8.13843
F         17.35712        9.26266       -6.06906
F         14.42614        8.28016       -7.77818
F         14.99975       10.23328       -6.91857
F         15.27498        8.78814       -4.39336
F         14.23484        7.12288       -5.39135
F         13.30598       10.48061       -4.78772
F         12.71062        8.62216       -3.76784
F         12.09790        9.71570       -7.07597
F         10.83171        9.87558       -5.27992
F         11.97714        7.03677       -7.04035
F         10.01828        8.06419       -7.04514
H          0.56196        5.51289       -4.05231
H          0.70294        3.78510       -3.58745
H          0.57898        4.24069       -5.31873
H          2.77536        3.22109       -5.79100
H          2.77368        2.68785       -4.07691
H          4.84163        4.65631       -5.18793
H          5.04874        2.88407       -5.27556
H          6.73760        4.75687       -3.74197
H          6.90705        2.98924       -3.81589
H          6.56619        2.87449       -1.30946
H          6.40593        4.63601       -1.25999
H          9.19070        4.60591       -0.06233
H          8.05840        1.29855       -2.66046
H          8.85178       -1.03394       -2.67020
H         11.01287       -1.63253       -1.55912
H         12.35019        0.15153       -0.45551
H         11.67477        1.68929        1.25626
H          8.15154        6.73620       -2.75507
H          8.96070        8.15988       -4.58687
H         12.16562        5.36299       -5.33194
H         11.35088        3.94341       -3.49177
