11

F          1.03675       -0.06500        0.04255
C          2.38410       -0.05612        0.07867
S          3.05724        0.05119        1.88992
O          2.44696       -1.10599        2.54883
O          4.51056        0.09080        1.71115
S          2.22529        2.07446        2.73316
O          2.81383        3.03542        1.80361
O          0.78442        1.85920        2.62643
O          2.80928        2.00200        4.06988
F          2.82501       -1.21398       -0.47823
F          2.82495        0.96481       -0.68296
