29

Cl         1.66525        0.20121       -1.61456
B          3.16307        0.36862       -0.50735
S          3.87186       -1.43609       -0.16180
O          4.08314       -2.24470       -1.36805
O          4.98251       -1.36111        0.80491
C          2.57964       -2.60036        0.79409
C          1.89561       -2.16048        2.13447
C          0.55837       -1.31353        2.12882
C         -0.72386       -1.88196        1.40790
F         -0.90052       -3.19508        1.66998
F         -1.80619       -1.21717        1.88832
F         -0.68555       -1.69775        0.08702
F          0.21826       -1.18558        3.45232
F          0.78359       -0.07825        1.63780
F          1.60377       -3.29331        2.85774
F          2.78376       -1.43366        2.86626
F          1.61321       -3.02770       -0.06659
F          3.35254       -3.68090        1.10975
C          4.36616        1.20611       -1.19546
C          5.48224        1.58642       -0.21876
C          6.53545        2.53330       -0.75621
O          6.43495        3.27941       -1.70223
O          7.71564        2.53732       -0.03083
H          2.85382        0.75885        0.59728
H          3.90898        2.12640       -1.59342
H          4.79166        0.68591       -2.06886
H          5.97016        0.67991        0.17588
H          5.04533        2.08133        0.66891
H          7.64127        1.85014        0.65495
