48

C          9.21332       -0.14344        1.67846
C          7.82217       -0.13401        1.03914
C          7.18264       -1.52411        0.95671
C          5.80436       -1.51521        0.28802
C          5.15101       -2.90344        0.11315
C          4.87244       -3.61186        1.41348
C          4.25631       -2.94734        2.49793
C          3.95267       -3.62443        3.67540
C          4.24196       -4.99819        3.84509
C          4.84474       -5.65642        2.75424
C          5.14877       -4.98414        1.56929
Si         3.73790       -5.90113        5.40122
C          1.84406       -6.15591        5.42577
C          1.28937       -6.77627        4.13780
C         -0.18846       -7.09132        4.20113
F         -0.95478       -5.99160        4.44604
F         -0.64340       -7.63550        3.03538
F         -0.48608       -7.99611        5.18770
C          4.55886       -7.60605        5.50118
C          4.17471       -4.91527        6.95844
C          3.69587       -2.66350       -0.62068
O          3.01103       -1.78102       -0.04855
O          3.48173       -3.37212       -1.61764
O          5.96556       -3.71131       -0.75501
H          9.65306        0.86431        1.72064
H          9.90440       -0.78548        1.11046
H          9.17394       -0.53484        2.70659
H          7.88440        0.29434        0.02419
H          7.15645        0.53612        1.60888
H          7.10358       -1.95021        1.97210
H          7.87302       -2.18433        0.39691
H          5.88756       -1.07802       -0.72057
H          5.10675       -0.87294        0.84286
H          3.97502       -1.90101        2.38184
H          3.46817       -3.06603        4.48323
H          5.08097       -6.72258        2.82335
H          5.58498       -5.52508        0.72863
H          1.36640       -5.17807        5.59700
H          1.58885       -6.78682        6.29348
H          1.79144       -7.72473        3.89179
H          1.44149       -6.10363        3.28077
H          4.27621       -8.25245        4.65803
H          4.26651       -8.12092        6.42834
H          5.65444       -7.51646        5.49438
H          3.73758       -3.90714        6.92356
H          5.26378       -4.80048        7.05435
H          3.80157       -5.41290        7.86598
H          6.82159       -3.82114       -0.30562
