54

C          9.28190        6.41979       -0.53668
C          8.85128        4.95659       -0.39962
C          9.28051        4.08613       -1.58528
C          8.86660        2.61520       -1.46906
C          9.30622        1.76727       -2.66683
C          8.91850        0.28731       -2.57838
C          9.36895       -0.52230       -3.80184
C          8.97821       -2.00820       -3.76896
Si         9.51678       -2.99513       -5.30771
C          8.82787       -4.73826       -5.28658
C          7.95849       -5.21746       -4.28885
C          7.34362       -6.47048       -4.40537
C          7.54833       -7.31201       -5.51572
C          8.46393       -6.84725       -6.48096
C          9.08381       -5.59886       -6.37527
In         6.41326       -9.23721       -5.71535
C          6.09965      -10.05849       -3.66482
C          4.86340       -9.52215       -2.93293
Cl         8.08430      -10.75936       -6.80445
C          8.85457       -2.11212       -6.85001
C         11.41066       -2.99030       -5.40263
H          8.96329        7.02056        0.32715
H          8.85074        6.87988       -1.43871
H         10.37626        6.50700       -0.61604
H          7.75493        4.90368       -0.28734
H          9.26916        4.53514        0.53062
H         10.37779        4.14611       -1.69948
H          8.86058        4.50925       -2.51547
H          7.76972        2.55103       -1.35683
H          9.28918        2.18845       -0.54211
H         10.40202        1.84735       -2.78276
H          8.87725        2.19732       -3.58968
H          7.82335        0.19812       -2.46686
H          9.35190       -0.15604       -1.66449
H         10.46436       -0.42441       -3.90266
H          8.94579       -0.04871       -4.70470
H          7.88309       -2.10225       -3.66916
H          9.40496       -2.49322       -2.87390
H          7.74257       -4.60266       -3.40884
H          6.67566       -6.78960       -3.59779
H          8.69990       -7.47751       -7.34401
H          9.77069       -5.28208       -7.16923
H          5.01968       -9.15945       -6.80173
H          7.01579       -9.82606       -3.09865
H          6.05714      -11.15511       -3.75076
H          4.90535       -8.42828       -2.80261
H          4.73068       -9.95264       -1.92115
H          3.93672       -9.73170       -3.49122
H          7.75827       -2.04102       -6.80677
H          9.11060       -2.68349       -7.75351
H          9.26480       -1.09786       -6.96151
H         11.85068       -3.42346       -4.49329
H         11.80448       -1.97014       -5.52449
H         11.75684       -3.58860       -6.25729
