23

C          1.15136       -2.33874       -1.28630
C          2.67173       -2.35472       -1.09695
C          3.30428       -0.96334       -1.19891
C          4.83529       -0.91564       -1.00192
C          5.68196       -1.59604       -2.08821
Ta         7.95386       -1.51586       -1.88049
S          7.28329        0.76150       -2.52576
F          8.08307       -2.54828       -0.29215
H          0.71411       -3.34577       -1.20350
H          0.88016       -1.93899       -2.27597
H          0.66230       -1.70072       -0.53279
H          3.13175       -3.01925       -1.84556
H          2.91531       -2.79048       -0.11189
H          2.81893       -0.30443       -0.45277
H          3.06491       -0.53365       -2.18890
H          5.07008       -1.35242       -0.01186
H          5.12469        0.14670       -0.93553
H          5.34487       -1.27326       -3.08866
H          5.53526       -2.69532       -2.06678
H          9.29084       -0.45984       -1.30713
H          9.36585       -1.54494       -2.96832
H          7.83987       -2.76364       -3.16198
H          8.43203        1.46852       -2.41244
