30

N          2.56343       -1.00328        0.05500
C          2.60771        0.46632       -0.05238
C          3.27746        1.09955        1.17079
C          4.78553        0.83052        1.32835
C          5.38497        1.49183        2.57199
In         7.61136        1.41095        2.89167
C          8.36919        3.49982        3.21434
C          7.93485        4.49350        2.13382
C          8.48656        5.90949        2.33003
N          8.01602        6.82981        1.27015
I          8.79702        0.78508        0.29270
H          2.07704       -1.40641       -0.74682
H          2.02743       -1.26844        0.88408
H          1.60216        0.91988       -0.18612
H          3.18977        0.71422       -0.95569
H          2.74610        0.75976        2.08122
H          3.11307        2.19036        1.12435
H          5.30217        1.19147        0.42190
H          4.95859       -0.25662        1.34662
H          4.92139        1.07200        3.48252
H          5.14054        2.56963        2.57037
H          8.22486        0.16376        3.99203
H          9.46899        3.45245        3.27015
H          8.01260        3.83451        4.20529
H          6.83433        4.55961        2.08053
H          8.26311        4.12622        1.14357
H          9.59227        5.84804        2.39300
H          8.13648        6.30839        3.29785
H          8.25833        6.43308        0.35904
H          8.51409        7.72028        1.33002
