41

C          1.92572        6.40970       -3.01514
O          3.29621        6.07111       -3.06183
C          3.49494        4.67889       -3.29237
C          4.99017        4.39649       -3.34525
O          5.14161        3.01290       -3.59047
C          6.53044        2.60946       -3.67183
C          6.61918        1.12669       -3.94506
Ga         8.49152        0.43412       -4.22182
S          9.49510        0.80577       -2.00201
O          9.63215        2.21691       -1.63343
O          9.04442       -0.11700       -0.96177
F         11.11859        0.33030       -2.26784
C          9.58253        1.61938       -5.44616
C         10.85569        2.13980       -5.13910
C         11.54482        2.95582       -6.04404
C         10.99000        3.28146       -7.28729
C          9.73220        2.77482       -7.60757
C          9.04171        1.95807       -6.69645
C          9.08228        3.12285       -8.91776
F          9.92309        3.76376       -9.77912
F          8.61877        2.01813       -9.57611
F          7.99895        3.94401       -8.75587
C         12.91978        3.48135       -5.72717
F         13.26403        3.33838       -4.42735
F         13.88979        2.84626       -6.46363
F         13.04366        4.81322       -6.02839
H          1.86063        7.48952       -2.82688
H          1.39832        5.87119       -2.20329
H          1.41405        6.17907       -3.97005
H          3.02442        4.37388       -4.24754
H          3.02984        4.08221       -2.48340
H          5.46505        4.69303       -2.38865
H          5.45725        5.00297       -4.14799
H          7.03695        2.87394       -2.72488
H          7.01576        3.19628       -4.47692
H          6.05507        0.88372       -4.86159
H          6.15885        0.55657       -3.12462
H          8.67215       -1.11315       -4.43550
H         11.31880        1.91189       -4.17769
H         11.52744        3.91958       -7.98744
H          8.05434        1.58605       -6.98534
