34

N          2.60900        1.49091       -2.14042
C          3.73879        1.69512       -1.21572
C          3.28780        1.50048        0.23197
C          4.40289        1.68037        1.27577
Nb         5.43580        3.64503        1.02336
S          3.43858        4.84853        1.91412
O          4.48573        5.90913        2.14410
O          2.16962        5.26090        1.28078
C          2.81162        4.53559        3.71704
F          2.11692        3.36549        3.76937
F          3.79968        4.46723        4.63486
F          1.96989        5.52709        4.10366
C          7.38045        4.22010        1.81751
C          7.53165        5.18570        2.99519
S          7.73471        4.24988        4.55360
C          7.25040        5.52648        5.74778
H          2.89866        1.70483       -3.09643
H          1.87401        2.16539       -1.91367
H          4.20519        2.69888       -1.31795
H          4.52686        0.96633       -1.46430
H          2.82022        0.49987        0.31148
H          2.47955        2.22590        0.43837
H          5.16691        0.89228        1.17215
H          3.97044        1.59248        2.28122
H          5.21780        3.48326        2.75111
H          4.62704        4.76336       -0.12322
H          6.41176        2.56662       -0.10122
H          7.74175        4.71113        0.88122
H          8.00914        3.32091        1.93923
H          6.63898        5.81806        3.10517
H          8.41191        5.84292        2.88153
H          7.33095        5.08035        6.74804
H          6.21045        5.83742        5.57755
H          7.91273        6.40314        5.69954
