36

S          1.48527       -0.20138       -1.48524
Al         3.13458        0.52117       -0.11691
S          4.41710       -1.42571        0.75948
O          4.39573       -2.66345       -0.04395
O          5.74184       -0.91056        1.17131
C          3.76393       -2.05180        2.53036
C          2.28056       -2.48926        2.72229
C          1.74526       -3.67582        1.84364
C          0.38490       -4.29099        2.34996
F         -0.54083       -3.33695        2.57527
F         -0.09534       -5.12617        1.40138
F          0.54757       -5.00605        3.48100
F          1.53077       -3.23601        0.58343
F          2.64106       -4.69721        1.82076
F          2.10303       -2.85114        4.04167
F          1.48599       -1.40779        2.48469
F          4.57520       -3.08410        2.89513
F          3.95836       -1.03295        3.42171
C          4.58189        1.39045       -1.18065
C          4.71625        0.90562       -2.62904
C          5.79836        1.68602       -3.39621
C          5.91198        1.31638       -4.85943
C          7.02567        2.08408       -5.63509
F          6.81336        3.42229       -5.58156
F          8.24412        1.83541       -5.09889
F          7.06542        1.72470       -6.93724
F          6.18634       -0.02207       -5.02739
F          4.73687        1.57182       -5.53550
H          0.56999       -0.25247       -0.49030
H          2.63099        1.20270        1.24747
H          5.53593        1.26519       -0.64188
H          4.36345        2.47512       -1.17244
H          3.75554        1.01238       -3.15680
H          4.96413       -0.16644       -2.65206
H          6.78179        1.52317       -2.92944
H          5.58936        2.76579       -3.34510
