10

F          1.10879        1.04267       -0.06781
Sb         2.82163        0.15414       -0.66956
C          3.81429        1.97855        0.28966
F          3.35895        2.34335        1.51878
F          5.17903        1.79892        0.43254
F          3.68757        3.10273       -0.50632
F          2.98682       -0.64722        1.17836
H          4.38541       -0.54608       -1.06628
H          1.85410       -1.22694       -1.08900
H          2.67035        0.99744       -2.20607
