66

C          8.77934        1.10094        5.65044
C          8.35618        0.87500        4.19740
C          8.90214        1.93270        3.23345
C          8.49035        1.70396        1.77678
C          9.03260        2.75587        0.80508
C          8.62638        2.50810       -0.64991
C          9.16433        3.55247       -1.63566
C          8.76617        3.27586       -3.09146
Si         9.37986        4.50271       -4.41367
C          8.73065        3.91988       -6.07386
C          7.34571        3.74158       -6.27457
C          6.84540        3.20894       -7.46616
C          7.68610        2.82627       -8.53143
C          9.06423        3.03957       -8.33224
C          9.57817        3.56541       -7.14004
In         6.88542        1.82086      -10.37145
C          5.29216        3.25395      -11.32943
C          5.32416        4.76190      -11.01328
F          6.53657        5.29860      -11.31795
F          4.39348        5.49687      -11.70144
F          5.09594        4.98741       -9.69492
F          5.33731        3.18468      -12.73314
F          3.98945        2.85439      -10.99417
C          8.58229        1.36832      -11.80632
C          9.44774        2.54421      -12.28562
C          8.78615        3.44359      -13.33286
C          9.45712        0.28394      -11.16137
C          8.74060        6.23925       -3.99440
C         11.27539        4.54134       -4.40244
H          8.37063        0.32885        6.31760
H          8.43061        2.07796        6.01791
H          9.87501        1.08402        5.75190
H          7.25509        0.86055        4.13115
H          8.69139       -0.12238        3.86604
H         10.00447        1.95320        3.30237
H          8.56119        2.93201        3.55805
H          7.38828        1.68142        1.70927
H          8.83168        0.70395        1.45569
H         10.13464        2.78374        0.87605
H          8.68428        3.75638        1.11773
H          7.52488        2.47836       -0.72336
H          8.97476        1.50760       -0.96149
H         10.26458        3.58964       -1.54723
H          8.80491        4.55048       -1.32895
H          7.66593        3.22911       -3.17431
H          9.12009        2.27447       -3.39324
H          6.63981        4.01225       -5.48053
H          5.76245        3.08416       -7.56135
H          9.77355        2.78022       -9.12406
H         10.66132        3.69100       -7.03964
H          5.93751        0.37786       -9.96741
H          8.09722        0.92725      -12.69571
H         10.39005        2.14486      -12.72232
H          9.76947        3.16487      -11.43067
H          8.51667        2.86327      -14.22949
H          9.45971        4.25511      -13.64942
H          7.86432        3.90058      -12.95342
H          9.96286        0.64989      -10.25253
H         10.25762       -0.06364      -11.84749
H          8.87009       -0.59859      -10.86434
H          7.64169        6.27014       -4.01401
H          9.10315        6.96814       -4.73333
H          9.07287        6.57090       -2.99933
H         11.69849        3.54930       -4.61576
H         11.65700        4.86781       -3.42385
H         11.66186        5.23920       -5.15910
