20

O          1.24910       -0.26759        0.22358
C          2.45711       -0.11767        0.05395
O          3.48385       -0.55373        0.64810
C          2.97090        0.85520       -1.17842
S          2.45324       -0.02031       -2.78246
O          2.58627       -1.45256       -2.58501
O          1.26849        0.54420       -3.40988
C          3.92888        0.38339       -3.99454
C          3.51506        0.16435       -5.48809
F          2.96050       -1.04852       -5.67373
F          2.65617        1.10805       -5.90978
F          4.62371        0.23741       -6.27630
F          4.34485        1.66684       -3.88161
F          4.96565       -0.44909       -3.73731
C          2.37572        2.27331       -1.08009
F          2.73051        2.81499        0.12077
F          2.85838        3.12372       -2.03661
F          1.03338        2.30875       -1.16002
O          4.34134        0.87876       -1.12611
H          4.44498        0.21444       -0.33711
