62

S          1.94853       -0.13539       -2.14478
Al         3.25221        0.04920       -0.24252
C          4.40667       -1.60223       -0.01399
C          4.69693       -2.48299       -1.07743
C          5.48978       -3.62167       -0.90910
C          6.04165       -3.95024        0.34688
C          5.75739       -3.08273        1.42054
C          4.96178       -1.94632        1.23691
Si         7.13392       -5.45809        0.52669
C          8.80851       -5.08787       -0.31859
C          9.79051       -6.26295       -0.36587
C         11.11625       -5.93651       -1.02067
F         11.80278       -4.96310       -0.35795
F         11.94002       -7.03160       -1.06029
F         10.97635       -5.51290       -2.30804
C          7.45112       -5.88605        2.34411
C          6.35066       -6.96232       -0.31942
C          4.39569        1.68158       -0.60169
C          3.82195        2.97224       -0.62302
C          4.56828        4.11922       -0.90309
C          5.95031        4.04115       -1.18043
C          6.53961        2.76207       -1.14838
C          5.77894        1.62098       -0.86616
Si         6.92723        5.58901       -1.57627
C          6.96539        6.75023       -0.05881
C          7.44922        6.07458        1.22856
C          7.55845        7.01580        2.40725
F          6.37195        7.60957        2.72199
F          7.98428        6.37204        3.53471
F          8.45113        8.02984        2.18433
C          8.70891        5.16756       -2.05728
C          6.12321        6.56763       -2.98244
H          1.09767       -1.03569       -1.59990
H          2.33481        0.25941        1.08846
H          4.27306       -2.27303       -2.06529
H          5.67692       -4.26861       -1.77405
H          6.15725       -3.29813        2.41694
H          4.75909       -1.31027        2.10610
H          9.26240       -4.23401        0.20898
H          8.59283       -4.73561       -1.33954
H          9.37292       -7.11223       -0.92731
H         10.03239       -6.63018        0.64331
H          7.94987       -5.06269        2.87514
H          8.08559       -6.77975        2.43938
H          6.50527       -6.09407        2.86443
H          6.15072       -6.76444       -1.38225
H          5.38947       -7.20431        0.15597
H          6.99117       -7.85470       -0.25562
H          2.75107        3.08376       -0.42276
H          4.06251        5.09184       -0.91443
H          7.60871        2.64972       -1.35583
H          6.28273        0.64881       -0.85795
H          5.94973        7.14825        0.09384
H          7.60743        7.61341       -0.29969
H          8.44756        5.62801        1.10282
H          6.77018        5.26148        1.52463
H          9.24610        4.64553       -1.25263
H          9.27112        6.08148       -2.29930
H          8.72994        4.51551       -2.94215
H          5.07995        6.81622       -2.74057
H          6.11415        5.97771       -3.90980
H          6.65938        7.50803       -3.17866
