69

C          0.76159        0.13227        0.55309
O          2.15079        0.19781        0.30871
C          2.87671        0.65578        1.44668
C          4.35957        0.67667        1.10387
O          5.04464        1.12069        2.25466
C          6.47208        1.15411        2.06165
C          7.10691        1.64894        3.35444
C          8.64838        1.49635        3.41396
C          9.08172        0.03566        3.31298
C          8.32996       -1.00234        3.89103
C          8.75522       -2.33136        3.84425
C          9.97014       -2.68999        3.23069
C         10.73168       -1.64573        2.66948
C         10.29508       -0.32199        2.69764
Si        10.50811       -4.47907        3.12960
C         10.04592       -5.37529        4.74918
C         10.60817       -4.70051        6.00554
C         10.24787       -5.40440        7.29529
F          8.90100       -5.47929        7.49649
F         10.71756       -6.68898        7.34175
F         10.76955       -4.76545        8.38419
C          9.63520       -5.38621        1.71921
C         12.37863       -4.60902        2.87891
C          9.20654        2.40577        2.20292
O          9.39284        3.61430        2.48717
O          9.32647        1.81869        1.09561
C          9.10707        2.06626        4.78220
C         10.61144        2.07429        4.99454
O         10.88209        2.64019        6.28885
C         12.26445        2.76163        6.54136
C         12.41371        3.40112        7.91449
O         13.80203        3.52296        8.21277
C         14.02684        4.13005        9.46758
H          0.28472       -0.22907       -0.36758
H          0.34204        1.12485        0.80972
H          0.52294       -0.56654        1.37908
H          2.70336       -0.01373        2.31211
H          2.54399        1.67168        1.73686
H          4.53995        1.34832        0.24053
H          4.69049       -0.33914        0.80541
H          6.72907        1.81402        1.21633
H          6.83020        0.13999        1.80333
H          6.62786        1.12068        4.19738
H          6.87716        2.71667        3.48557
H          7.38531       -0.77494        4.38856
H          8.11898       -3.09701        4.29962
H         11.68706       -1.86486        2.18508
H         10.88066        0.45602        2.21051
H         10.40187       -6.41575        4.67983
H          8.94753       -5.42792        4.81367
H         10.24330       -3.66636        6.09463
H         11.70717       -4.64947        5.97982
H          8.54451       -5.34496        1.84820
H          9.93730       -6.44287        1.66694
H          9.87372       -4.91163        0.75715
H         12.93003       -4.07545        3.66573
H         12.67836       -4.17528        1.91469
H         12.69900       -5.66107        2.88658
H          8.63251        1.49968        5.60316
H          8.75807        3.10735        4.82810
H         11.09019        2.68716        4.21027
H         11.03616        1.05265        4.95348
H         12.75946        3.39189        5.77551
H         12.76743        1.77225        6.53092
H         11.90669        2.77602        8.67571
H         11.92639        4.39548        7.91749
H         15.11370        4.18111        9.61559
H         13.57928        3.54331       10.29399
H         13.61002        5.15559        9.50834
