38

C          0.89152       -0.50391        0.56062
C          2.40936       -0.59079        0.74459
C          3.01760        0.65280        1.40123
C          4.53812        0.58835        1.58576
C          5.14226        1.86826        2.19075
C          6.65921        1.82272        2.39712
In         7.58888        3.61185        3.38987
S          5.58335        4.41474        5.03145
O          4.72815        3.26502        5.45947
O          6.05025        5.31187        6.12936
C          4.42731        5.47165        4.06712
C          9.14671        3.08360        4.91009
C          8.64688        2.57429        6.27161
C          7.82019        1.28492        6.20435
H          0.48442       -1.40243        0.07307
H          0.61774        0.36436       -0.05863
H          0.38050       -0.38782        1.52842
H          2.88925       -0.75252       -0.23626
H          2.65570       -1.47960        1.35058
H          2.54066        0.81732        2.38348
H          2.76377        1.53999        0.79286
H          5.01798        0.38015        0.61147
H          4.79034       -0.26832        2.23669
H          4.64593        2.06791        3.15537
H          4.87819        2.71730        1.53304
H          7.17388        1.66554        1.43255
H          6.92191        0.96315        3.03654
H          7.86089        5.04120        2.37253
H          4.05715        4.89899        3.20727
H          4.96060        6.37345        3.74299
H          3.60636        5.72075        4.75364
H          9.77086        3.97926        5.05346
H          9.79510        2.32122        4.44096
H          8.03957        3.35514        6.75656
H          9.50914        2.39634        6.94637
H          6.87507        1.44413        5.66537
H          7.56181        0.92398        7.21232
H          8.37497        0.48053        5.69295
