20

O          2.15001        0.55606        0.25859
Nb         4.00058        0.17520        0.34735
C          4.28437       -1.82008        1.41335
C          3.67168       -1.97108        2.76988
O          2.94290       -2.89258        3.11172
O          3.96855       -0.98474        3.67279
C          4.17398        1.00225       -1.81255
C          3.49832        2.30020       -1.73309
O          2.31280        2.51321       -1.99826
O          4.24608        3.34031       -1.21951
H          1.80587        1.15560       -0.43936
H          4.62640       -1.07584       -0.74370
H          4.71852        0.62551        1.95199
H          5.21336        1.52252        0.35812
H          5.38599       -1.79513        1.50591
H          4.00662       -2.69064        0.81024
H          4.38553       -0.25658        3.12787
H          3.61176        0.30111       -2.43875
H          5.22293        1.06314       -2.11762
H          4.97899        2.89823       -0.72840
