36

N          0.75087       -3.48520       -4.67789
C          2.16685       -3.82280       -4.43434
C          2.88232       -2.70696       -3.67711
C          4.35632       -3.02018       -3.37576
C          5.12063       -1.89465       -2.65893
Al         6.99845       -2.41801       -2.17433
S          7.79614       -0.68786       -0.60284
O          6.81911       -0.41662        0.47434
O          9.20853       -0.88348       -0.20848
C          7.87281        1.03080       -1.50037
F          6.66480        1.37146       -2.02756
F          8.23895        2.01297       -0.64260
F          8.76826        1.02374       -2.52459
C          8.35319       -2.54720       -3.65405
C          8.13223       -1.71487       -4.92421
C          9.15366       -2.00260       -6.02698
N          8.88984       -1.19924       -7.23887
H          0.31574       -4.19233       -5.27296
H          0.69948       -2.60622       -5.19764
H          2.73083       -4.03949       -5.36499
H          2.18986       -4.74632       -3.83167
H          2.34481       -2.50499       -2.73616
H          2.82838       -1.77481       -4.26981
H          4.86008       -3.27101       -4.32818
H          4.39679       -3.94431       -2.76987
H          4.59214       -1.62622       -1.72738
H          5.10717       -0.98429       -3.28441
H          7.09032       -3.64161       -1.11250
H          8.39187       -3.62074       -3.92591
H          9.34844       -2.32455       -3.22929
H          8.16124       -0.63722       -4.69646
H          7.12162       -1.90767       -5.33332
H          9.16140       -3.09590       -6.21912
H         10.16049       -1.73985       -5.66217
H          7.95025       -1.41093       -7.58237
H          9.53172       -1.46666       -7.98728
