71

C         -0.24230       -0.94540       -0.67068
C          0.66475        0.10912       -1.31719
C          1.84241       -0.50253       -2.11657
C          2.60040        0.51861       -3.07122
C          3.67999        1.30038       -2.28778
C          4.48869        2.50481       -2.95444
C          5.11479        3.51134       -1.91578
F          5.83457        2.87935       -0.96384
F          5.96251        4.34356       -2.57900
F          4.18518        4.27484       -1.32121
F          5.54823        1.99560       -3.66107
F          3.76511        3.26536       -3.80708
F          3.16689        1.79574       -1.11403
F          4.71820        0.44489       -1.89193
C          3.23005       -0.18423       -4.27980
C          3.42637       -1.57294       -4.36528
C          3.91618       -2.17848       -5.52631
C          4.25705       -1.42736       -6.66403
C          4.08120       -0.03070       -6.56907
C          3.56861        0.56736       -5.42210
Si         4.69850       -2.23591       -8.29638
C          3.08501       -2.42417       -9.30588
C          2.30644       -1.10718       -9.42054
C          1.02327       -1.13620      -10.23362
C         -0.19064       -2.00259       -9.73198
C         -0.68866       -1.87395       -8.24158
C         -1.20470       -0.49607       -7.65117
C         -2.45002        0.17954       -8.33691
C         -3.11551        1.32848       -7.48758
F         -2.21537        2.24137       -7.10919
F         -4.04587        1.93484       -8.26774
F         -3.74260        0.83765       -6.40558
F         -2.07534        0.72502       -9.52134
F         -3.41641       -0.75098       -8.57314
F         -1.54816       -0.76992       -6.36713
F         -0.17906        0.38306       -7.66405
F         -1.68966       -2.78880       -8.09688
F          0.33948       -2.25300       -7.43445
F         -1.25688       -1.76716      -10.54985
F          0.15081       -3.32008       -9.87771
F          0.55411        0.14902      -10.38386
F          1.27586       -1.60152      -11.51174
C          5.92289       -1.17579       -9.27694
C          5.42664       -3.96403       -8.05278
C          1.39692        1.50682       -3.64531
O          1.25680        2.59201       -3.05131
O          0.73877        0.97208       -4.56412
C          2.71922       -1.34362       -1.16182
H         -1.12562       -0.46506       -0.22503
H          0.25805       -1.51179        0.12867
H         -0.60460       -1.66976       -1.41812
H          1.05064        0.78993       -0.54436
H          0.05307        0.72522       -1.98688
H          1.37377       -1.18722       -2.84328
H          3.17174       -2.21650       -3.52577
H          4.02402       -3.26699       -5.53532
H          4.32090        0.61267       -7.42073
H          3.38578        1.64008       -5.42927
H          2.47750       -3.18754       -8.79746
H          3.31881       -2.81923      -10.30739
H          2.91457       -0.34144       -9.92930
H          2.06989       -0.70145       -8.42716
H          5.53702       -0.16426       -9.46685
H          6.14909       -1.63551      -10.25043
H          6.86683       -1.06670       -8.72415
H          4.73351       -4.62170       -7.50961
H          6.36400       -3.91886       -7.48030
H          5.64378       -4.43659       -9.02198
H          3.02910       -0.75216       -0.28848
H          3.63221       -1.72822       -1.62778
H          2.14445       -2.20481       -0.79135
