66

C          8.79962        2.40609        5.47870
C          8.40296        1.79429        4.13261
C          8.89541        2.60645        2.93064
C          8.50441        2.01152        1.57387
C          9.00018        2.83397        0.38000
C          8.60450        2.26131       -0.98537
C          9.10979        3.09925       -2.16803
C          8.71130        2.55159       -3.54776
Si         9.32348        3.55763       -5.05166
C          8.81765        2.73180       -6.65847
C          7.92459        3.32341       -7.57393
C          7.61562        2.70986       -8.79266
C          8.18538        1.48119       -9.19261
C          9.06617        0.89340       -8.25699
C          9.37127        1.48885       -7.03197
B          7.88765        0.72541      -10.59228
S          8.71533        1.73131      -12.06727
O         10.13405        1.97847      -11.72508
O          8.45991        1.07213      -13.37031
C          8.04776        3.42211      -12.30467
C          6.36813        0.09882      -10.76822
C          5.11883        0.93559      -10.40589
C          4.72891        2.06407      -11.36782
C          6.15681       -0.66885      -12.08541
C          8.61156        5.31208       -4.94426
C         11.21562        3.67388       -4.96735
H          8.43201        1.80566        6.32313
H          8.39058        3.42201        5.58880
H          9.89361        2.48088        5.57389
H          7.30497        1.69929        4.08028
H          8.79893        0.76686        4.06326
H          9.99483        2.70117        2.98379
H          8.50102        3.63584        3.00365
H          7.40520        1.91745        1.52090
H          8.89959        0.98294        1.49877
H         10.10031        2.92057        0.43226
H          8.61305        3.86512        0.46591
H          7.50483        2.17780       -1.04402
H          8.99146        1.23127       -1.07949
H         10.20934        3.17479       -2.09999
H          8.73242        4.13090       -2.05310
H          7.61190        2.47947       -3.62085
H          9.08132        1.51753       -3.66271
H          7.46495        4.28890       -7.33943
H          6.91557        3.22009       -9.46041
H          9.53754       -0.05710       -8.52015
H         10.07285        0.98014       -6.36081
H          8.67281       -0.21071      -10.71437
H          8.10748        3.98487      -11.36574
H          7.02080        3.36959      -12.68131
H          8.70895        3.86855      -13.05852
H          6.39927       -0.67534       -9.97405
H          5.24885        1.35886       -9.39596
H          4.25637        0.24386      -10.33302
H          5.46529        2.87858      -11.35753
H          3.75523        2.49919      -11.09170
H          4.64990        1.70565      -12.40497
H          6.16440       -0.00605      -12.96158
H          5.19983       -1.22408      -12.07771
H          6.97188       -1.38836      -12.24794
H          7.51196        5.30680       -4.94558
H          8.94419        5.91971       -5.79822
H          8.94483        5.81699       -4.02550
H         11.67436        2.67636       -5.03158
H         11.56258        4.14844       -4.03736
H         11.59621        4.26251       -5.81433
