84

N          2.80436       -2.15929        0.18480
C          3.17809       -2.39818       -1.22852
C          4.15145       -1.34657       -1.75394
In         5.91016       -0.77052       -0.44566
C          5.09626        0.76029        1.01148
C          4.24961        1.82111        0.62702
C          3.79528        2.78799        1.53179
C          4.16696        2.74694        2.89228
C          4.98509        1.67160        3.29646
C          5.42659        0.70994        2.38087
Si         3.66653        4.09960        4.08403
C          1.83921        3.91536        4.62414
C          1.37895        4.98314        5.62310
C         -0.06670        4.86290        6.05466
F         -0.33828        3.67531        6.66580
F         -0.40479        5.84480        6.94998
F         -0.93802        4.97682        5.01192
C          4.73896        4.04898        5.64545
C          3.85625        5.79924        3.26389
C          6.67160       -2.42892        0.87357
C          8.02209       -2.48180        1.27367
C          8.51771       -3.48586        2.11374
C          7.68582       -4.51873        2.59462
C          6.33110       -4.47190        2.20455
C          5.84036       -3.45159        1.37895
Si         8.38978       -5.88972        3.66885
C          8.54627       -5.40706        5.51055
C          7.25521       -5.36627        6.34120
C          7.49880       -5.04068        7.82107
C          6.23987       -5.08310        8.69267
C          6.51305       -4.79806       10.17313
C          5.26776       -4.87034       11.06165
C          5.55026       -4.59548       12.54198
C          4.30100       -4.67148       13.42300
C          7.32608       -7.45536        3.54425
C         10.14641       -6.31311        3.08963
H          1.84837       -2.46637        0.36893
H          2.84185       -1.15838        0.38633
H          2.26877       -2.44885       -1.86911
H          3.64721       -3.39716       -1.28899
H          3.60238       -0.40858       -1.95375
H          4.55681       -1.67687       -2.72300
H          7.24326       -0.08426       -1.40666
H          3.93771        1.91268       -0.41987
H          3.15298        3.59718        1.16464
H          5.29681        1.58749        4.34297
H          6.05929       -0.10482        2.74855
H          1.71197        2.91147        5.05819
H          1.20833        3.94455        3.72183
H          1.48674        5.99628        5.20698
H          1.97538        4.95078        6.54734
H          4.58861        3.11811        6.21074
H          4.51352        4.89043        6.31706
H          5.80446        4.10868        5.38248
H          3.23121        5.87655        2.36253
H          4.89918        5.95459        2.95373
H          3.57894        6.62249        3.93893
H          8.71927       -1.71613        0.91579
H          9.57861       -3.46715        2.38799
H          5.64060       -5.25096        2.54638
H          4.77347       -3.44209        1.13072
H          9.05025       -4.42572        5.55668
H          9.24959       -6.12602        5.97081
H          6.74020       -6.34064        6.27562
H          6.55736       -4.62661        5.91360
H          7.96743       -4.04398        7.90037
H          8.23973       -5.75462        8.22493
H          5.76510       -6.07594        8.59647
H          5.50198       -4.35691        8.30960
H          6.97307       -3.79901       10.27265
H          7.26622       -5.51486       10.54687
H          4.80493       -5.86828       10.96061
H          4.51457       -4.15048       10.69584
H          6.01236       -3.59879       12.64307
H          6.30305       -5.31538       12.90645
H          3.54499       -3.93831       13.10431
H          4.53551       -4.47093       14.47831
H          3.83648       -5.66770       13.36836
H          6.29418       -7.28138        3.88012
H          7.74712       -8.26282        4.16224
H          7.28001       -7.81129        2.50524
H         10.81668       -5.44590        3.17733
H         10.14785       -6.62547        2.03575
H         10.57468       -7.12871        3.69122
