17

N          1.14726        0.21895        0.00981
P          2.96121       -0.27123       -0.16214
C          3.15324        1.00783       -1.61498
O          2.74302        0.38959       -2.91896
C          2.77671        1.15045       -3.98723
F          4.02116        1.66564       -4.29613
F          2.38358        0.42532       -5.07741
F          1.94296        2.25390       -3.94245
O          3.39109        1.07075        0.91189
H          0.69645       -0.58976        0.44828
H          0.73447        0.27829       -0.92660
H          2.77436       -1.18771        0.97282
H          4.39082       -0.59214       -0.22782
H          2.66502       -1.34560       -1.11962
H          4.21007        1.29025       -1.70600
H          2.52683        1.89675       -1.46621
H          2.51818        1.44559        1.11806
