47

C          3.34163        0.21173        0.32510
C          3.71532        0.77202       -1.05396
C          2.55230        1.53235       -1.71159
Sb         1.16524        0.37223       -3.12073
C         -0.29374       -0.24287       -1.49951
C         -0.67077       -1.72677       -1.63480
C          0.07932       -2.66057       -0.69468
O         -0.47305       -3.35843        0.14383
O          1.42021       -2.69422       -0.82704
C          2.67528        0.58494       -4.80451
C          3.74280       -0.50162       -4.79215
C          4.81343       -0.40693       -5.89624
C          5.74247        0.79606       -5.73062
N          6.78314        0.79469       -6.75381
C          7.72980        1.80063       -6.83012
N          7.78305        2.90290       -6.16139
N          8.73802        1.52341       -7.77426
C          4.98505        1.63494       -0.94172
H          2.48713       -0.47462        0.26760
H          3.07987        1.03100        1.01545
H          4.18207       -0.34638        0.76826
H          3.96976       -0.09990       -1.68669
H          2.92531        2.33329       -2.36972
H          1.90376        2.00444       -0.95538
H          2.08662       -1.24534       -2.64330
H          0.13720       -0.64184       -4.21938
H          0.34908        1.90909       -3.55581
H         -1.17734        0.39903       -1.62490
H          0.16582       -0.01359       -0.52783
H         -0.47062       -2.05453       -2.67995
H         -1.73859       -1.90177       -1.44741
H          1.71490       -2.08973       -1.60242
H          3.09715        1.59543       -4.69183
H          2.07896        0.55199       -5.73080
H          3.25670       -1.48861       -4.86460
H          4.25739       -0.51294       -3.81593
H          4.33373       -0.36004       -6.88815
H          5.43031       -1.32617       -5.88033
H          6.18211        0.78275       -4.71339
H          5.16634        1.72969       -5.82144
H          7.12386       -0.12853       -7.01002
H          7.07394        2.91961       -5.42395
H          8.38094        1.16046       -8.65575
H          9.31165        2.35100       -7.91741
H          4.80745        2.51091       -0.29628
H          5.30390        2.00826       -1.92683
H          5.82444        1.06409       -0.50902
