66

C          2.00304        0.73225       -0.71000
C          2.49980       -0.43114        0.17035
C          3.48910       -1.36345       -0.50596
C          2.97918       -2.28655       -1.47681
C          3.78922       -2.93566       -2.47270
C          3.26588       -3.79945       -3.41892
C          1.88291       -4.12250       -3.48732
C          1.06673       -3.46063       -2.53808
C          1.57597       -2.57833       -1.59650
Si         1.21398       -5.28951       -4.76016
C          2.28269       -6.87768       -4.83295
C          2.43097       -7.57224       -3.47560
C          3.24280       -8.84633       -3.51758
F          4.51658       -8.65093       -3.96228
F          3.34695       -9.42456       -2.28170
F          2.68967       -9.79641       -4.33572
C         -0.57007       -5.79545       -4.35449
C          1.23564       -4.58748       -6.52546
C          4.86973       -1.25489       -0.12697
C          5.81955       -2.32728       -0.23794
C          7.12572       -2.21973        0.20841
C          7.64002       -1.03646        0.80538
C          6.71379        0.02777        0.92725
C          5.39979       -0.07108        0.49139
Si         9.39725       -0.93119        1.38379
C         10.61727       -1.09143       -0.08671
C         10.33080       -0.09874       -1.21766
C         11.29404       -0.18864       -2.37856
F         11.30561       -1.41930       -2.96564
F         10.98812        0.70929       -3.36521
F         12.58680        0.07545       -2.01059
C          9.74131        0.72493        2.24449
C          9.84969       -2.33677        2.57627
H          1.26691        1.36140       -0.18126
H          1.52937        0.35128       -1.62632
H          2.84203        1.37363       -1.01812
H          1.62044       -1.00125        0.52029
H          2.94746       -0.02169        1.08835
H          4.85267       -2.70340       -2.51947
H          3.95956       -4.23015       -4.15066
H         -0.01311       -3.64292       -2.53445
H          0.87041       -2.10813       -0.91050
H          3.27828       -6.60531       -5.21849
H          1.84063       -7.56791       -5.57007
H          1.45244       -7.84829       -3.05404
H          2.91535       -6.90349       -2.74848
H         -0.64963       -6.24953       -3.35640
H         -0.94741       -6.52133       -5.09029
H         -1.24110       -4.92460       -4.37273
H          2.25208       -4.27822       -6.80904
H          0.59097       -3.69953       -6.59487
H          0.88508       -5.32421       -7.26508
H          5.48455       -3.28795       -0.62812
H          7.76939       -3.10207        0.11331
H          7.03445        0.97399        1.37521
H          4.75727        0.80377        0.60400
H         10.54725       -2.12002       -0.47537
H         11.64776       -0.96380        0.28375
H         10.37633        0.94301       -0.86415
H          9.31936       -0.25402       -1.62253
H          9.54468        1.58236        1.58484
H         10.79084        0.78399        2.56920
H          9.10633        0.84255        3.13417
H          9.62601       -3.31599        2.12867
H          9.26451       -2.25808        3.50363
H         10.91800       -2.32208        2.84123
