30

N          5.28008       -1.60752       -0.82916
C          4.63311       -1.73024        0.49135
C          5.00997       -0.56440        1.40624
C          4.56041        0.81206        0.91002
C          4.95306        1.97561        1.84981
C          6.42833        2.32234        1.95552
C          7.03797        3.22073        0.97206
C          6.91962        4.77520        1.26626
C          7.34694        5.78538        0.14535
F          8.60465        5.56408       -0.28735
F          6.51850        5.74601       -0.91967
F          7.30518        7.05755        0.63539
F          5.61170        5.08452        1.55160
F          7.66964        5.08195        2.35882
F          8.38572        3.00757        0.75601
F          6.40834        3.08937       -0.29056
S          7.35569        1.63721        3.16035
O          8.52431        2.40084        3.55811
O          6.51556        1.00821        4.17042
F          8.11645        0.26283        2.48687
H          5.20275       -2.48374       -1.34679
H          6.27958       -1.43626       -0.69633
H          4.88938       -2.67605        1.01100
H          3.54041       -1.74274        0.32783
H          6.10261       -0.56617        1.54977
H          4.58330       -0.75263        2.40543
H          3.45826        0.81083        0.80504
H          4.96706        0.99904       -0.09360
H          4.57806        1.76188        2.86253
H          4.41737        2.87584        1.50962
