19

C          1.44312        0.81834        0.13929
Ga         2.75850       -0.69997        0.23466
C          4.14610       -0.52613       -1.39305
C          4.77509        0.81880       -1.82382
C          5.56749        1.60452       -0.72833
F          6.56506        0.87278       -0.19236
F          6.13140        2.71691       -1.27903
F          4.76199        2.02216        0.26900
F          5.65762        0.67775       -2.88371
F          3.78197        1.66362       -2.25252
F          5.23784       -1.39130       -1.19305
F          3.54221       -0.98721       -2.57869
N          3.72730       -0.69186        1.91020
H          1.01695        0.90331       -0.87147
H          1.91108        1.78163        0.38946
H          0.61563        0.64827        0.84449
H          2.18248       -2.16514       -0.03619
H          4.21476        0.19412        2.05891
H          4.46270       -1.40260        1.89942
