21

O          3.43701        0.89127       -0.43547
C          2.82124       -0.00634        0.45686
S          1.48182        0.63450        1.24199
O          1.02375       -0.17535        2.36287
O          1.53946        2.08154        1.35872
F          0.14108        0.47329        0.15428
C          3.15434       -1.40504        0.36309
C          4.19069       -1.80117       -0.53207
C          4.58350       -3.13273       -0.66160
C          3.98038       -4.16064        0.07552
C          2.95061       -3.77902        0.95700
C          2.54374       -2.45879        1.10635
C          4.42672       -5.59654       -0.04551
H          2.99828        0.80823       -1.30271
H          4.69761       -1.03240       -1.11547
H          5.38791       -3.37899       -1.36327
H          2.44324       -4.54936        1.54753
H          1.74084       -2.21684        1.80007
H          5.06721       -5.90859        0.79898
H          5.00626       -5.75664       -0.96739
H          3.57016       -6.28992       -0.06519
