27

C          4.61842        2.02075       -2.49956
C          4.28242        1.08872       -1.33251
C          4.90634       -0.30285       -1.47087
C          4.55201       -1.25736       -0.32621
C          5.16531       -2.66344       -0.46246
C          6.68715       -2.72659       -0.28071
Ga         7.47146       -4.53981       -0.61066
S          6.41426       -5.80900        1.28766
O          6.94494       -5.34490        2.57511
O          4.97159       -6.05838        1.22658
F          7.07744       -7.38062        1.15131
S          6.57796       -5.34534       -2.56572
H          4.16052        3.01363       -2.37703
H          4.26096        1.60352       -3.45344
H          5.70584        2.16299       -2.59263
H          3.18657        0.98897       -1.24475
H          4.62018        1.54508       -0.38616
H          6.00233       -0.19929       -1.54343
H          4.58157       -0.75304       -2.42641
H          3.45179       -1.34628       -0.27077
H          4.87336       -0.81327        0.63334
H          4.88728       -3.07080       -1.45081
H          4.68624       -3.32922        0.27219
H          6.96730       -2.40235        0.73473
H          7.20036       -2.05102       -0.98621
H          8.98280       -4.90977       -0.39227
H          7.44597       -6.37730       -2.66287
