7

C          0.95414        0.07282       -0.01470
N          2.40604        0.06413       -0.00352
H          0.57936        0.70335       -0.82596
H          0.57144        0.45807        0.93446
H          0.57144       -0.94206       -0.15376
H          2.74972        1.01840        0.09633
H          2.74972       -0.26816       -0.90361
