11

C          0.96183        0.07409       -0.06232
C          2.48088        0.05077       -0.07978
C          3.01445       -1.08807       -0.93225
H          0.60229        0.90167        0.55715
H          0.55983       -0.85755        0.34859
H          0.55983        0.20581       -1.07200
H          2.85587       -0.05355        0.94438
H          2.85587        1.00403       -0.46847
H          2.67731       -2.05645       -0.54886
H          4.10892       -1.08374       -0.92899
H          2.67735       -0.99307       -1.96943
