13

C          1.05927       -0.03159       -0.06584
C          2.58007       -0.01559       -0.07502
C          3.11876        1.14225       -0.91150
N          4.57681        1.13338       -0.90831
H          0.69269       -0.86823        0.53715
H          0.66189       -0.14371       -1.07968
H          0.65991        0.89456        0.35978
H          2.94537       -0.96979       -0.47383
H          2.94215        0.06372        0.95725
H          2.76060        2.09755       -0.51224
H          2.76357        1.05828       -1.94419
H          4.91879        1.24139        0.04577
H          4.92071        1.93983       -1.42793
