14

C          1.02781        0.05293       -0.08152
C          2.55458        0.02308       -0.07487
C          3.07790       -0.37212        1.30424
C          3.07754       -0.93536       -1.14252
H          0.64977        0.76113        0.66337
H          0.60883       -0.93334        0.14561
H          0.64952        0.36414       -1.06099
H          2.92036        1.03081       -0.30690
H          2.74025       -1.37526        1.58629
H          2.72832        0.33015        2.06839
H          4.17289       -0.36633        1.32064
H          2.73987       -1.96083       -0.95750
H          4.17253       -0.93740       -1.16010
H          2.72772       -0.63785       -2.13672
