19

C          0.90356       -0.03124        0.07073
O          2.32492       -0.01447        0.05960
C          2.82839        1.12903       -0.63109
C          4.35234        1.09892       -0.61295
O          4.85893        2.24164       -1.30271
C          6.28482        2.25615       -1.31121
C          6.74827        3.49173       -2.05696
H          0.57436       -0.92388        0.60918
H          0.51277       -0.07518       -0.95046
H          0.51390        0.85158        0.58656
H          2.46898        2.04710       -0.15054
H          2.46896        1.13106       -1.66712
H          4.71101        0.18062       -1.09319
H          4.71096        1.09623        0.42342
H          6.66103        1.35694       -1.81127
H          6.66077        2.27978       -0.28247
H          6.36587        3.48897       -3.08301
H          7.84032        3.54234       -2.08725
H          6.36550        4.39830       -1.57663
