8

F          1.20506       -0.37301        0.44614
C          2.43782       -0.04025       -0.02805
C          2.91936       -1.04159       -1.06199
F          2.00177       -1.26277       -2.03513
F          4.05515       -0.62265       -1.66710
F          3.20326       -2.23883       -0.49307
F          2.32296        1.20826       -0.55129
H          3.12317       -0.00161        0.82527
