30

F          2.89069       -1.13112        0.66197
C          2.35579       -0.09086       -0.04507
C          2.82915        1.22746        0.58588
C          2.35412        1.43724        2.01594
C          2.72004        0.41208        3.07919
C          4.20284        0.20935        3.26817
C          4.47186       -0.74887        4.42429
F          3.36101       -1.29475        4.96468
F          5.25862       -1.78295        4.02864
F          5.13979       -0.13552        5.43441
F          4.75144       -0.28014        2.11992
F          4.82309        1.40387        3.48149
F          2.17973        0.83100        4.26746
F          2.10969       -0.77343        2.81197
F          2.80662        2.66384        2.43626
F          0.98794        1.56443        2.00536
F          4.18820        1.32607        0.52952
F          2.36972        2.28263       -0.16368
C          2.73771       -0.17721       -1.51336
C          1.92424        0.39763       -2.50342
C          2.30663        0.36751       -3.84548
C          3.50050       -0.24814       -4.21568
C          4.30771       -0.84517       -3.24648
C          3.92873       -0.81229       -1.90540
F          1.00630       -0.21132        0.12584
H          0.98732        0.88556       -2.23315
H          1.67573        0.82768       -4.60315
H          3.80254       -0.25976       -5.25966
H          5.23435       -1.32751       -3.54023
H          4.57118       -1.28505       -1.16440
