16

O          1.13529       -0.53596        0.00938
S          2.58700       -0.17037       -0.13260
O          2.83395        1.23157       -0.63532
C          3.14675       -0.09816        1.60759
C          2.57457        1.06211        2.39243
C          1.08167        1.16126        2.61505
C          0.47853       -0.08816        3.24386
F          1.28983       -0.63892        4.18450
F         -0.67586        0.22461        3.90330
F          0.15356       -1.07138        2.38626
F          0.90478        2.19438        3.53443
F          0.36623        1.58148        1.54222
F          3.14906        0.98246        3.66078
F          3.04755        2.27054        1.93444
F          2.83725       -1.28082        2.21187
F          4.51394       -0.04306        1.61216
