45

F          1.49690        0.94017        0.16155
C          1.66861       -0.39011       -0.11138
C          2.28380       -0.52567       -1.50314
C          2.55323       -1.94014       -1.98070
C          1.38646       -2.91475       -2.00532
C          0.19274       -2.59518       -2.88253
C          0.51836       -2.57477       -4.37105
F          1.70887       -3.13165       -4.67173
F         -0.41661       -3.24431       -5.09118
F          0.53801       -1.30869       -4.85206
F         -0.75049       -3.56646       -2.64850
F         -0.40424       -1.43636       -2.49602
F          1.86436       -4.14610       -2.36855
F          0.96007       -3.09480       -0.71704
F          3.11063       -1.87362       -3.22594
F          3.53647       -2.48105       -1.18915
F          1.48635        0.08884       -2.42590
F          3.46489        0.16803       -1.52682
C          2.45725       -1.01318        1.04110
C          1.72267       -0.83439        2.36816
Si         2.54973       -1.59061        3.92011
C          1.36999       -1.15263        5.35905
C          0.06645       -1.67221        5.37277
C         -0.84325       -1.28736        6.36302
C         -0.45865       -0.39402        7.35712
C          0.84060        0.11398        7.36581
C          1.75240       -0.26570        6.37972
C          2.69661       -3.45180        3.76585
C          4.25279       -0.84841        4.14274
F          0.41441       -0.91719       -0.12364
H          3.45269       -0.53803        1.09592
H          2.61175       -2.08177        0.86571
H          0.72517       -1.28280        2.28957
H          1.57769        0.23383        2.56957
H         -0.27568       -2.36643        4.60622
H         -1.85551       -1.68623        6.35676
H         -1.16651       -0.08577        8.11936
H          1.14396        0.80976        8.14394
H          2.75585        0.16226        6.40996
H          1.75878       -3.89519        3.41840
H          2.94966       -3.89977        4.73255
H          3.48451       -3.72033        3.05516
H          4.20544        0.24367        4.17431
H          4.90759       -1.13351        3.31145
H          4.71603       -1.19822        5.06952
