18

F          2.08408        0.38153        1.30965
C          2.45070       -0.08852        0.08486
C          2.73076        1.00115       -0.92337
C          2.66559        2.35454       -0.56364
C          2.91787        3.35161       -1.50618
C          3.23753        3.00894       -2.82030
C          3.31064        1.66346       -3.20837
C          3.06064        0.66662       -2.24884
C          3.64807        1.27877       -4.62955
F          3.80532        2.34549       -5.46168
F          4.80416        0.56475       -4.71372
F          2.68558        0.50102       -5.19802
F          3.53126       -0.88849        0.29923
F          1.44522       -0.91639       -0.31295
H          2.41393        2.64105        0.45704
H          2.86418        4.39930       -1.21651
H          3.42740        3.80119       -3.54350
H          3.11782       -0.38410       -2.53901
