8

C          0.78279        0.79521       -0.00004
N         -0.56101        1.01984        0.00275
N         -1.16089       -0.17852        0.00387
N         -0.12909       -1.10121        0.00165
H         -0.31779       -2.10601        0.00194
N          1.04684       -0.54172       -0.00071
H          1.94339       -1.02286       -0.00261
H          1.59048        1.51052       -0.00163
