10

C          0.09208       -1.14666        0.00179
N         -1.03539       -0.42878       -0.00037
H         -1.97068       -0.83183       -0.00186
C         -0.75015        0.92006       -0.00027
C          0.61216        1.02364        0.00206
N          1.09805       -0.26656        0.00328
H          2.08353       -0.52358        0.00507
H          0.17426       -2.22754        0.00225
H         -1.56266        1.62562       -0.00189
H          1.30866        1.84393        0.00302
