10

N          1.09353       -0.04580        0.03950
C          2.42157       -0.04579        0.03949
N          3.08561       -0.69468        0.98907
H          4.09737       -0.71028        1.01189
H          2.60368       -1.19684        1.72392
N          3.08559        0.60312       -0.91010
H          0.56372       -0.53236        0.75153
H          0.56369        0.44076       -0.67251
H          2.60365        1.10527       -1.64494
H          4.09735        0.61872       -0.93293
