11

C         -1.37351       -0.06166       -0.01466
C         -0.74255        1.16786        0.00727
C          0.63543        1.17731        0.03737
N          1.38442        0.05688        0.04626
N          0.74778       -1.11192        0.02462
H          1.30966       -1.96649        0.03120
C         -0.59057       -1.20518       -0.00519
H         -2.45863       -0.12919       -0.03877
H         -1.30859        2.09573        0.00109
H          1.19131        2.11242        0.05570
H         -1.00377       -2.20709       -0.02085
