15

C          0.36948       -1.19106        0.24214
C         -1.00891       -0.76094       -0.20383
C         -1.04878        0.72410        0.11371
C          0.39218        1.21013        0.03490
N          1.21316       -0.02693       -0.16081
H          2.09502        0.00879        0.36725
H          1.46727       -0.11604       -1.15451
H          0.74361       -2.08728       -0.25811
H          0.44965       -1.28743        1.32979
H         -1.80238       -1.31726        0.30298
H         -1.12319       -0.91706       -1.28305
H         -1.44230        0.89047        1.12383
H         -1.69836        1.26771       -0.57867
H          0.71775        1.67719        0.96895
H          0.58270        1.87464       -0.81168
