17

C         -0.74170        1.25269        0.24608
C          0.72598        1.22193       -0.21947
N          1.44941        0.00158        0.16495
C          0.72596       -1.21918       -0.21815
C         -0.74174       -1.24943        0.24737
N         -1.44174        0.00140       -0.20669
H         -1.48566        0.00088       -1.23460
H         -2.41317        0.00160        0.12875
H         -1.28380        2.09669       -0.18978
H         -0.82123        1.28739        1.33757
H          1.25393        2.09127        0.18729
H          0.76135        1.31961       -1.31155
H          1.64977        0.00211        1.16777
H          1.25388       -2.08809        0.18958
H          0.76138       -1.31806       -1.31012
H         -0.82132       -1.28303        1.33888
H         -1.28384       -2.09385       -0.18767
