12

C         -0.75189        1.15153       -0.00724
C          0.63773        1.22591       -0.01422
C          1.39038        0.05540       -0.00830
C          0.73461       -1.16891        0.00453
N         -0.60804       -1.20883        0.01102
H         -1.07310       -2.11775        0.02044
C         -1.36116       -0.09658        0.00556
H         -1.35093        2.05983       -0.01176
H          1.13420        2.19623       -0.02428
H          2.47748        0.10096       -0.01366
H          1.25550       -2.12059        0.00976
H         -2.43771       -0.23089        0.01159
