11

C          0.51119        1.15110        0.01454
C         -1.00542        0.96479       -0.01596
S         -1.33147       -0.82493        0.05286
C          0.35778       -1.20439        0.00229
N          1.13101       -0.18783       -0.01612
H          2.14362       -0.32205       -0.03886
H          0.84478        1.65024        0.92883
H          0.87155        1.70790       -0.85570
H         -1.43100        1.37931       -0.93530
H         -1.48050        1.46525        0.83350
H          0.77198       -2.22314       -0.01109
