14

C          0.95627        0.01583       -0.15250
C          2.46322       -0.12671        0.00495
C          2.88216       -1.11940        1.09816
C          2.45455       -2.58367        0.90889
Br         3.07102       -3.36712       -0.77555
F          2.91007       -3.35528        1.93458
F          1.09834       -2.68931        0.94598
Br         4.85682       -0.99940        1.28154
F          2.36758       -0.65506        2.28196
H          0.73173        0.76364       -0.92048
H          0.49391        0.34714        0.78277
H          0.48669       -0.92192       -0.46082
H          2.85341        0.86759        0.25636
H          2.90348       -0.39135       -0.96267
