18

C          1.16981       -0.38291       -0.26887
C          2.61278        0.00652        0.01554
C          2.99830        1.26203       -0.72297
C          2.81615        2.51907       -0.13096
C          3.13183        3.68325       -0.83341
C          3.62942        3.60196       -2.13221
C          3.81537        2.35640       -2.72971
C          3.50029        1.19140       -2.02928
H          0.91024       -1.29901        0.27045
H          1.00962       -0.56092       -1.33788
H          0.47714        0.40513        0.04643
H          3.28309       -0.81270       -0.27185
H          2.75325        0.15100        1.09364
H          2.42061        2.59777        0.87887
H          2.98378        4.65417       -0.36765
H          3.86806        4.50866       -2.68082
H          4.20070        2.29227       -3.74355
H          3.64234        0.22638       -2.51073
