9

C          1.09681        0.03744       -0.02171
C          2.61139        0.04405       -0.02473
O          3.09167        1.33763        0.31131
H          0.71076       -0.95678       -0.26333
H          0.70514        0.75424       -0.75092
H          0.71220        0.33808        0.95840
H          3.00318       -0.23143       -1.00855
H          2.99879       -0.66568        0.71200
H          2.75058        1.95900       -0.35440
