8

C          1.06400        0.02248       -0.07911
C          2.57410        0.01666       -0.08209
F          3.01744        1.16066        0.50260
H          0.66781       -0.88499       -0.54291
H          0.68525        0.89292       -0.62360
H          0.68525        0.09106        0.94531
H          2.96834       -0.01951       -1.10121
H          2.96834       -0.83050        0.48558
