11

C          1.02427        0.07557       -0.02772
C          2.54332        0.09027       -0.05297
C          3.07681        0.80132       -1.28511
H          0.66480       -0.44114        0.86766
H          0.62231       -0.44324       -0.90388
H          0.62218        1.09371       -0.01699
H          2.91841       -0.93900       -0.03478
H          2.91829        0.58958        0.84730
H          2.73970        0.30547       -2.20102
H          4.17128        0.79868       -1.28045
H          2.73962        1.84241       -1.31411
