24

C          1.01497       -0.00895        0.14940
C          2.53503       -0.02190        0.10837
C          3.04790       -0.31980       -1.29992
C          4.57845       -0.31945       -1.35310
C          5.10048       -0.62797       -2.75379
O          4.64952        0.38158       -3.65415
C          5.06788        0.12801       -4.99208
C          4.51163        1.22363       -5.87959
H          0.66396        0.20796        1.16301
H          0.60655       -0.97883       -0.15217
H          0.61135        0.75674       -0.52096
H          2.90918       -0.77638        0.80990
H          2.91220        0.95085        0.44474
H          2.65056        0.43015       -1.99431
H          2.67101       -1.29551       -1.62941
H          4.97554       -1.06022       -0.64946
H          4.94419        0.66624       -1.04076
H          4.73954       -1.60919       -3.08333
H          6.19621       -0.64020       -2.74261
H          4.68855       -0.84514       -5.32250
H          6.16254        0.12433       -5.04176
H          3.41791        1.24154       -5.82886
H          4.81394        1.07540       -6.91991
H          4.86134        2.20595       -5.54554
