20

C          0.90896       -0.02410       -0.02513
C          2.42916       -0.04293       -0.03277
C          2.96371       -1.27066       -0.76361
C          4.48886       -1.28348       -0.80603
O          4.94979       -2.44717       -1.51120
C          4.98201       -2.33698       -2.86694
O          4.66113       -1.34600       -3.50884
C          5.45245       -3.61492       -3.49223
H          0.54328        0.86291        0.50154
H          0.50802       -0.90915        0.47895
H          0.51244       -0.00038       -1.04543
H          2.79689       -0.03313        0.99971
H          2.79683        0.86866       -0.51760
H          2.56260       -1.30001       -1.78364
H          2.60886       -2.18809       -0.27785
H          4.89169       -1.34649        0.21097
H          4.89603       -0.36958       -1.25510
H          5.72424       -4.34813       -2.72739
H          6.33511       -3.41209       -4.10356
H          4.64940       -4.03290       -4.10436
