11

Br         3.25477        1.94509        0.37069
C          2.98177        0.05142       -0.00750
C          3.52546       -0.81325        1.11762
Br         2.89275       -2.65345        0.82223
C          5.04640       -0.85323        1.18722
H          3.46510       -0.15268       -0.96783
H          1.90017       -0.06318       -0.12831
H          3.10811       -0.52178        2.08772
H          5.48455       -1.17388        0.23501
H          5.38808       -1.55161        1.95906
H          5.46019        0.12954        1.43353
