14

C          1.01631        0.02057        0.06307
C          2.53114        0.10766        0.00588
S          3.03377        1.67292       -0.76548
C          4.76002        1.51955       -0.66662
N          5.41845        0.38012       -0.58782
N          6.75917        0.69907       -0.51676
C          6.81766        2.00904       -0.55477
O          5.59944        2.60401       -0.65504
H          0.71547       -0.91578        0.54465
H          0.57533        0.03321       -0.93960
H          0.58632        0.84371        0.64398
H          2.92566       -0.73565       -0.56995
H          2.94060        0.05653        1.02063
H          7.68329        2.65015       -0.51504
