13

C          0.92952        0.04575       -0.06593
C          2.45023        0.04795       -0.05752
C          3.00458        0.31860        1.33989
C          4.47543        0.31988        1.33757
C          5.67619        0.32242        1.34251
H          0.55680       -0.15020       -1.07627
H          0.53345        1.01279        0.26015
H          0.53407       -0.72970        0.59789
H          2.81251        0.80903       -0.75963
H          2.81322       -0.91986       -0.42497
H          2.64188       -0.44470        2.03819
H          2.63990        1.28630        1.70373
H          6.74186        0.32516        1.34846
