22

C          1.02756        0.03367       -0.03980
C          2.54671       -0.02139       -0.06333
C          3.05275       -1.06024       -1.06297
C          4.57837       -1.11152       -1.08200
N          5.08012       -2.08916       -2.03320
C          5.32140       -3.40916       -1.75644
C          5.80883       -3.99889       -2.90246
C          5.86338       -2.99872       -3.90225
C          5.40699       -1.82756       -3.33764
H          0.68621        0.78414        0.68000
H          0.60465       -0.93325        0.25102
H          0.62955        0.30094       -1.02395
H          2.91368       -0.26117        0.94144
H          2.93850        0.96861       -0.32439
H          2.67690       -0.82184       -2.06581
H          2.65136       -2.04808       -0.80406
H          4.97569       -1.37983       -0.09584
H          5.00133       -0.13817       -1.35673
H          5.12807       -3.82302       -0.77547
H          6.09517       -5.03743       -3.00600
H          6.19992       -3.11862       -4.92372
H          5.29036       -0.83796       -3.75965
