17

C          0.89567       -0.07747        0.02666
C          2.41498       -0.01189        0.09155
C          2.95018        1.24079        0.80676
C          2.49822        1.31998        2.26560
C          4.47905        1.26373        0.73722
H          0.58334       -0.93071       -0.58425
H          0.48084        0.83050       -0.42204
H          0.45671       -0.20702        1.02018
H          2.80173       -0.02920       -0.93509
H          2.79073       -0.91680        0.58452
H          2.57625        2.13028        0.28395
H          2.78657        0.42094        2.81992
H          1.41259        1.43434        2.34008
H          2.94904        2.18431        2.76527
H          4.91314        0.39783        1.24892
H          4.87717        2.16935        1.20713
H          4.82218        1.25027       -0.30269
