16

C          1.42608        0.43798       -0.74553
O          2.39635       -0.05397        0.17033
C          2.98871        0.86663        0.99126
C          2.68521        2.22767        1.05042
C          3.37098        3.06262        1.93808
C          4.36063        2.54167        2.76971
C          4.66517        1.18368        2.71718
C          3.97926        0.35080        1.83127
H          1.06990       -0.40685       -1.34265
H          1.86599        1.16886       -1.43233
H          0.56403        0.85944       -0.21790
H          1.92079        2.67158        0.42219
H          3.13072        4.12189        1.97940
H          4.89268        3.19312        3.45787
H          5.43502        0.77125        3.36364
H          4.21949       -0.70889        1.79264
