17

C          0.90030       -0.00089        0.02113
C          2.42056       -0.03462        0.01060
C          2.93896       -1.42824       -0.32966
C          4.46324       -1.47211       -0.37715
O          4.90685       -2.80212       -0.69015
C          4.92348       -3.11556       -2.00961
O          4.60609       -2.39105       -2.93870
H          0.54421        1.00445        0.26400
H          0.49864       -0.69519        0.76545
H          0.49727       -0.27704       -0.95877
H          2.79698        0.27437        0.99285
H          2.79102        0.69076       -0.72251
H          2.52810       -1.75289       -1.29335
H          2.58038       -2.15796        0.40731
H          4.87746       -1.22270        0.60622
H          4.87317       -0.74707       -1.09057
H          5.27017       -4.15396       -2.12479
