10

C          0.89670        0.05144       -0.07403
C          2.38000       -0.04776       -0.05369
C          3.13347       -0.79025       -1.12510
O          3.02965        0.64159       -1.12829
H          0.46380       -0.63821        0.65673
H          0.48158       -0.19177       -1.05783
H          0.58256        1.06652        0.18767
H          2.80736        0.04316        0.93527
H          2.58104       -1.33022       -1.88322
H          4.09631       -1.21811       -0.87514
