14

C          1.06552       -0.06837        0.00850
C          2.59230       -0.04010       -0.00308
C          3.11563        0.11642       -1.42911
C          3.11527        1.08492        0.88731
H          0.68748       -0.89221       -0.60605
H          0.64657        0.86537       -0.38196
H          0.68722       -0.20965        1.02646
H          2.95805       -0.99415        0.39587
H          2.77802        1.05750       -1.87659
H          2.76604       -0.70484       -2.06365
H          4.21063        0.10790       -1.44429
H          2.77759        2.06440        0.53173
H          4.21026        1.08991        0.90428
H          2.76546        0.95964        1.91749
