29

C          0.97772       -0.01042       -0.05707
C          2.49801       -0.00006       -0.06879
C          3.04053        0.84044       -1.22376
C          4.57004        0.85063       -1.23761
C          5.10506        1.69440       -2.39532
C          6.63415        1.71039       -2.41713
C          7.16002        2.55663       -3.57759
C          8.68764        2.57742       -3.60635
C          9.20924        3.41882       -4.76027
H          0.60925       -0.61681        0.77616
H          0.58120       -0.43238       -0.98614
H          0.57950        1.00285        0.05749
H          2.86439       -1.02983       -0.15271
H          2.86279        0.39782        0.88534
H          2.66749        1.86814       -1.13681
H          2.66780        0.44121       -2.17505
H          4.94419       -0.17643       -1.32714
H          4.94418        1.25019       -0.28715
H          4.72887        2.72078       -2.30556
H          4.72904        1.29451       -3.34496
H          7.01177        0.68476       -2.50865
H          7.01169        2.11111       -1.46856
H          6.78070        3.58173       -3.48565
H          6.78047        2.15596       -4.52552
H          9.07270        1.55557       -3.70312
H          9.07287        2.98174       -2.66310
H          8.86706        3.02169       -5.72131
H         10.30366        3.42104       -4.76366
H          8.86759        4.45540       -4.67557
