11

C          1.00265       -0.06274        0.06991
C          2.52254       -0.05065        0.09414
C          3.04649        0.61317        1.35495
Br         4.99317        0.60542        1.34355
H          0.64175       -0.54403       -0.84446
H          0.60179        0.95555        0.09877
H          0.60113       -0.61493        0.92565
H          2.89136        0.47633       -0.79413
H          2.89064       -1.08151        0.02633
H          2.73710        0.07977        2.25794
H          2.73850        1.65999        1.42535
