17

C          0.90066        0.00429        0.02947
C          2.42040       -0.00126        0.08046
C          2.92867       -0.03781        1.52012
C          4.45105       -0.01614        1.57239
S          5.04323       -0.06262        3.25307
O          4.59660        1.12958        3.94516
O          4.82835       -1.39025        3.78971
Cl         7.07889        0.13439        3.13954
H          0.55581        0.03000       -1.00856
H          0.49482        0.88128        0.54432
H          0.48926       -0.89272        0.50304
H          2.80015        0.89348       -0.42682
H          2.79689       -0.87128       -0.47006
H          2.55270       -0.93699        2.02335
H          2.52904        0.82120        2.07282
H          4.84103        0.89979        1.11749
H          4.87523       -0.88169        1.05480
