21

C          0.86791        0.09223        0.01671
C          2.38804        0.05094        0.00782
C          2.90160       -1.34839       -0.32872
C          4.43155       -1.39621       -0.35058
C          4.95360       -2.79318       -0.67802
O          4.50491       -3.16874       -1.97875
C          4.92198       -4.48213       -2.32318
H          0.51637        1.10037        0.25668
H          0.46158       -0.59701        0.76387
H          0.46276       -0.18498       -0.96188
H          2.76371        0.36112        0.98964
H          2.76327        0.77264       -0.72718
H          2.50433       -1.65257       -1.30482
H          2.52378       -2.06589        0.40992
H          4.82796       -1.08219        0.62233
H          4.79868       -0.68871       -1.10376
H          4.59179       -3.51490        0.06358
H          6.04944       -2.78902       -0.66093
H          4.52934       -4.71778       -3.31595
H          4.52535       -5.21093       -1.60990
H          6.01402       -4.54020       -2.35499
