30

C          0.87107       -0.02842        0.11504
C          2.39075       -0.03473        0.08894
C          2.92474       -0.54842       -1.24810
C          4.45312       -0.55216       -1.26753
C          4.99474       -1.06228       -2.60392
C          6.52353       -1.06755       -2.60561
C          7.08464       -1.58930       -3.93059
C          8.61140       -1.59293       -3.93842
O          9.08275       -2.46268       -2.91124
C         10.50111       -2.47010       -2.83422
H          0.50978        0.34335        1.07873
H          0.47237       -1.03770       -0.03079
H          0.46832        0.61725       -0.67154
H          2.76226       -0.66445        0.90544
H          2.75796        0.98216        0.27074
H          2.54818        0.08286       -2.06184
H          2.55229       -1.56423       -1.42709
H          4.82842       -1.18523       -0.45405
H          4.82588        0.46304       -1.08449
H          4.62643       -0.42767       -3.41902
H          4.62242       -2.07723       -2.78902
H          6.88172       -1.69141       -1.77799
H          6.89476       -0.05101       -2.42719
H          6.72099       -0.97038       -4.75931
H          6.72071       -2.61103       -4.09355
H          8.99158       -0.57842       -3.77131
H          8.97296       -1.95011       -4.90921
H         10.79715       -3.13337       -2.01714
H         10.88002       -1.46565       -2.62231
H         10.93209       -2.84772       -3.76632
