23

C          0.94920        0.07543        0.08137
C          2.46880        0.04878        0.07925
C          3.00322       -1.36745       -0.13126
C          4.52946       -1.38436       -0.14037
C          5.07651       -2.78857       -0.38058
O          6.51224       -2.76033       -0.39432
C          7.08099       -2.41810       -1.58189
O          6.47528       -2.14133       -2.60840
C          8.57480       -2.40362       -1.47041
H          0.58844        1.09771        0.23261
H          0.54716       -0.54969        0.88494
H          0.54957       -0.28854       -0.87060
H          2.83811        0.44880        1.03075
H          2.83814        0.70820       -0.71492
H          2.62575       -1.76408       -1.08169
H          2.63207       -2.02495        0.66408
H          4.92071       -1.00329        0.81114
H          4.90517       -0.70163       -0.91169
H          4.68614       -3.22889       -1.30582
H          4.77885       -3.45207        0.43900
H          8.89599       -2.73096       -0.47656
H          8.93945       -1.38731       -1.63600
H          8.99706       -3.08885       -2.20959
