15

C          0.90286        0.04041        0.06351
C          2.40009        0.06700       -0.01962
C          3.09779        1.27994       -0.06560
C          4.49125        1.29045       -0.15209
C          5.19788        0.08989       -0.19576
C          4.51199       -1.12235       -0.15302
C          3.11893       -1.13432       -0.06636
H          0.48800        1.04881        0.16322
H          0.58256       -0.53923        0.93532
H          0.48410       -0.40973       -0.84218
H          2.56165        2.22546       -0.03438
H          5.02518        2.23636       -0.18632
H          6.28233        0.09928       -0.26387
H          5.06150       -2.05919       -0.18819
H          2.59519       -2.08705       -0.03574
