16

C          1.05041        0.07154        0.04483
C          2.57063        0.05684        0.02489
C          3.10801       -0.96839       -0.97418
C          4.63560       -0.97820       -0.98785
N          5.12687       -1.95867       -1.94884
H          0.68789        0.81064        0.76609
H          0.65235       -0.90696        0.33196
H          0.64766        0.33130       -0.93937
H          2.94105       -0.17369        1.03056
H          2.93654        1.05711       -0.23451
H          2.72926       -0.73455       -1.97731
H          2.73136       -1.96523       -0.71178
H          5.02225       -1.22089        0.00805
H          5.01637        0.01155       -1.26171
H          4.80196       -2.88866       -1.68716
H          6.14473       -1.99014       -1.90902
