21

C          2.72787       -3.29735        1.36530
C          2.41922       -2.05741        0.53705
C          3.09250       -0.78840        1.07195
C          4.60022       -0.85541        1.08893
C          5.32558       -0.99133       -0.10267
C          6.71791       -1.08575       -0.07767
C          7.40001       -1.03341        1.13583
C          6.69071       -0.88163        2.32554
C          5.29810       -0.79208        2.30306
H          2.18218       -4.15929        0.96856
H          2.43047       -3.15695        2.40899
H          3.79440       -3.54227        1.33995
H          1.33388       -1.90019        0.53390
H          2.71241       -2.23825       -0.50355
H          2.71308       -0.57878        2.08013
H          2.79342        0.06764        0.45366
H          4.80916       -1.03553       -1.05868
H          7.27009       -1.20512       -1.00644
H          8.48360       -1.11171        1.15509
H          7.22139       -0.83815        3.27288
H          4.76035       -0.68056        3.24167
