24

C          0.86519       -0.03772       -0.04339
C          2.38486       -0.05268       -0.04911
C          2.93370       -1.37440       -0.58640
C          4.46309       -1.37490       -0.58138
C          5.02815       -2.69793       -1.10558
C          6.55506       -2.70466       -1.10788
O          7.02720       -2.55183        0.22941
C          8.44584       -2.50776        0.28767
H          0.49814        0.91793        0.34385
H          0.46744       -0.83649        0.59088
H          0.46758       -0.17027       -1.05453
H          2.74923        0.11373        0.97145
H          2.75054        0.77876       -0.66300
H          2.56788       -1.53896       -1.60723
H          2.56299       -2.20383        0.02820
H          4.81952       -1.19616        0.44011
H          4.83278       -0.54874       -1.20095
H          4.66578       -2.87992       -2.12418
H          4.66508       -3.51559       -0.47178
H          6.93549       -1.88796       -1.73258
H          6.91685       -3.65650       -1.51259
H          8.74245       -2.36704        1.33073
H          8.82875       -1.66786       -0.30002
H          8.87224       -3.44788       -0.07458
