15

C          1.05573        0.06422        0.03147
C          2.57597        0.06528        0.01680
C          3.12149        0.27777       -1.39242
C          4.64439        0.27932       -1.41084
O          5.11022        0.48803       -2.73729
H          0.68656       -0.09106        1.05005
H          0.65783       -0.73671       -0.59984
H          0.65926        1.01767       -0.33196
H          2.93998       -0.88817        0.41697
H          2.94150        0.85683        0.68127
H          2.75315        1.22569       -1.80426
H          2.74933       -0.50549       -2.06454
H          5.04892       -0.67047       -1.04647
H          5.04080        1.08403       -0.78390
H          4.77059       -0.24035       -3.28485
