9

C          1.04011       -0.09042        0.02749
C          2.53254       -0.05471        0.02218
C          3.24125        1.06843       -0.14568
H          0.69287       -1.11723        0.18095
H          0.63732        0.25934       -0.92799
H          0.63729        0.52344        0.83892
H          3.05474       -0.99816        0.16321
H          2.75734        2.02965       -0.28937
H          4.32667        1.04706       -0.14247
