30

C          3.24531       -1.84049        3.15109
C          2.67573       -0.83764        2.16058
C          2.97893       -1.16436        0.68449
C          2.46886       -2.54345        0.20802
C          0.94644       -2.69898        0.24823
C          0.46766       -4.05513       -0.19227
C          0.30140       -5.14004        0.58850
C          0.69851       -5.21474        2.03680
C         -0.32789       -6.39662        0.05054
C          2.44628       -0.03314       -0.20278
H          3.24392       -1.41233        4.15998
H          4.27789       -2.10948        2.90215
H          2.64763       -2.75297        3.18369
H          3.10727        0.14441        2.39217
H          1.59624       -0.74195        2.32554
H          4.07151       -1.17404        0.56921
H          2.94189       -3.32971        0.80918
H          2.81815       -2.70740       -0.82062
H          0.47952       -1.96476       -0.41818
H          0.55804       -2.47910        1.24973
H          0.17334       -4.11311       -1.23960
H          1.18228       -4.30482        2.39466
H          1.40773       -6.03525        2.18663
H         -0.18043       -5.39293        2.66408
H         -0.65413       -6.28649       -0.98903
H         -1.21117       -6.65469        0.64461
H          0.37863       -7.23102        0.09770
H          1.36221        0.08463       -0.10285
H          2.67566       -0.22206       -1.25631
H          2.90400        0.92255        0.07328
