12

C          1.03494        0.07722        0.04890
O          2.45557        0.05245        0.08335
C          2.94128       -0.70376        1.18977
C          4.45655       -0.68213        1.15783
H          0.72158        0.66788       -0.81607
H          0.63790        0.54579        0.95456
H          0.63654       -0.93642       -0.05708
H          2.58202       -1.73630        1.11842
H          2.58226       -0.26215        2.12592
H          4.82858       -1.10646        0.21941
H          4.87266       -1.25273        1.99281
H          4.82876        0.34627        1.21208
