17

C          2.41550       -0.99515        1.95542
C          2.45619       -0.45200        0.54004
O          2.99703       -1.47109       -0.31118
C          4.35762       -1.49170       -0.40196
O          5.10690       -0.60519       -0.01750
C          4.79046       -2.81916       -0.97107
C          6.30219       -2.95860       -0.98728
H          1.98916       -0.26471        2.64891
H          3.41735       -1.26943        2.29796
H          1.81250       -1.91188        1.99103
H          3.03003        0.48195        0.48130
H          1.44239       -0.23483        0.19055
H          4.39115       -2.92648       -1.98247
H          4.37237       -3.60553       -0.33161
H          6.75474       -2.22730       -1.66526
H          6.58917       -3.96099       -1.31866
H          6.72546       -2.79518        0.01043
