17

C          0.95702        0.04804        0.10819
C          2.47714        0.05586        0.08101
C          3.01023        0.43717       -1.29977
C          4.53846        0.44363       -1.32381
C          5.07205        0.82234       -2.69619
H          0.59710       -0.22707        1.10454
H          0.55554       -0.67447       -0.60954
H          0.55515        1.03624       -0.13733
H          2.84689       -0.93716        0.36197
H          2.84656        0.76416        0.83169
H          2.63412        1.42935       -1.57773
H          2.63394       -0.27159       -2.04755
H          4.91958       -0.54727       -1.05072
H          4.91978        1.15407       -0.58112
H          4.73482        0.11208       -3.45788
H          6.16651        0.82078       -2.69110
H          4.73504        1.82281       -2.98572
