14

C          0.92184       -0.02852        0.00323
C          2.44142       -0.04285        0.03031
C          3.03130        0.61425       -1.21517
C          4.54264        0.60423       -1.19604
O          5.23759        0.13635       -0.30907
O          5.07193        1.18572       -2.29825
H          0.52240       -0.50403        0.90452
H          0.53965       -0.57327       -0.86596
H          0.53971        0.99648       -0.03772
H          2.79210       -1.07898        0.10814
H          2.79211        0.47785        0.92947
H          2.69703        1.65592       -1.27670
H          2.69708        0.07701       -2.10973
H          4.40333        1.51720       -2.92663
