15

C          2.97102       -0.46807       -1.29582
C          2.50879       -0.07985        0.10149
C          3.00815       -1.04948        1.16762
O          4.43378       -1.02935        1.19396
C          4.95480       -1.93218        2.15945
H          2.57400        0.23635       -2.03376
H          2.61975       -1.47056       -1.56014
H          4.06250       -0.45472       -1.37309
H          1.41413       -0.04587        0.12467
H          2.87882        0.92835        0.32109
H          2.65461       -2.06417        0.95171
H          2.62345       -0.74330        2.14737
H          6.04636       -1.88488        2.12058
H          4.64169       -2.95642        1.93561
H          4.62758       -1.64833        3.16414
