38

C          0.88931        0.10441        0.10230
C          2.40922        0.09829        0.08649
C          2.94843       -0.41576       -1.24711
C          4.47666       -0.42314       -1.26366
C          5.01008       -0.93655       -2.60056
C          6.53745       -0.94386       -2.62219
C          7.06734       -1.45546       -3.96109
C          8.59498       -1.46211       -3.98241
C          9.12868       -1.97331       -5.32027
C         10.65695       -1.97766       -5.33616
C         11.19818       -2.48750       -6.67054
C         12.71815       -2.49135       -6.68458
H          0.52140        0.47515        1.06386
H          0.49199       -0.90449       -0.04822
H          0.49219        0.75130       -0.68655
H          2.77597       -0.53206        0.90493
H          2.77604        1.11489        0.26994
H          2.57555        0.21610       -2.06257
H          2.57439       -1.43083       -1.42843
H          4.85098       -1.05699       -0.45016
H          4.85225        0.59132       -1.08221
H          4.63385       -0.30325       -3.41347
H          4.63436       -1.95092       -2.78151
H          6.91380       -1.57816       -1.81063
H          6.91286        0.07061       -2.44083
H          6.69059       -0.82113       -4.77299
H          6.69191       -2.46997       -4.14263
H          8.97120       -2.09587       -3.16985
H          8.96939       -0.44728       -3.80064
H          8.75305       -1.33967       -6.13297
H          8.75493       -2.98833       -5.50215
H         11.03056       -2.61050       -4.52190
H         11.02873       -0.96222       -5.15240
H         10.83155       -1.85546       -7.48773
H         10.83308       -3.50414       -6.85712
H         13.11366       -1.48232       -6.53023
H         13.08786       -2.85836       -7.64691
H         13.11536       -3.14010       -5.89734
