29

C          0.91480        0.09080        0.04327
C          2.43467        0.07169        0.02109
C          2.96877       -0.79699       -1.11782
C          4.49784       -0.81054       -1.13199
C          5.04141       -1.67785       -2.26876
C          6.57252       -1.68487       -2.27209
C          7.11788       -2.54942       -3.40716
S          8.93553       -2.53194       -3.37199
C          9.28870       -3.53321       -4.74548
N          8.39184       -4.12971       -5.50632
N          9.08867       -4.81723       -6.47940
C         10.35695       -4.58883       -6.23927
O         10.57076       -3.78825       -5.16161
H          0.55588        0.71781        0.86544
H          0.51180       -0.91724        0.18383
H          0.51386        0.49448       -0.89190
H          2.80338       -0.30606        0.98187
H          2.80539        1.09757       -0.08776
H          2.59512       -0.41728       -2.07656
H          2.59265       -1.82127       -1.00681
H          4.86988       -1.18915       -0.17212
H          4.87248        0.21453       -1.24179
H          4.67264       -1.29902       -3.22977
H          4.66866       -2.70365       -2.16012
H          6.93125       -2.06199       -1.30599
H          6.93521       -0.65438       -2.37700
H          6.77048       -2.16335       -4.37159
H          6.76373       -3.58012       -3.29793
H         11.22354       -4.94567       -6.77410
