44

C          0.81280        0.08603       -0.04886
C          2.33199        0.07363       -0.04174
C          2.87337       -0.84191        1.05469
C          4.40101       -0.85464        1.06456
C          4.93290       -1.77388        2.16262
C          6.46008       -1.78914        2.17943
C          6.98645       -2.71086        3.27771
C          8.51343       -2.72640        3.29676
C          9.04035       -3.64856        4.39458
C         10.56741       -3.66182        4.41172
C         11.09968       -4.58256        5.50869
C         12.62768       -4.59282        5.52119
C         13.16757       -5.51257        6.61479
C         14.68701       -5.52191        6.62655
H          0.44275        0.74532       -0.83993
H          0.41926        0.44710        0.90675
H          0.41342       -0.91729       -0.22791
H          2.70147        1.09459        0.10958
H          2.69555       -0.26201       -1.01997
H          2.49863       -1.86128        0.90085
H          2.50267       -0.50593        2.03070
H          4.77777        0.16335        1.22197
H          4.77398       -1.19075        0.08979
H          4.55674       -2.79199        2.00468
H          4.55826       -1.43872        3.13748
H          6.83734       -0.77177        2.33912
H          6.83620       -2.12465        1.20502
H          6.60964       -3.72822        3.11718
H          6.60939       -2.37624        4.25188
H          8.88995       -1.70895        3.45775
H          8.89032       -3.06053        2.32237
H          8.66414       -4.66613        4.23315
H          8.66310       -3.31465        5.36884
H         10.94219       -2.64351        4.57173
H         10.94312       -3.99512        3.43668
H         10.72499       -5.60090        5.34869
H         10.72467       -4.24886        6.48388
H         13.00043       -3.57361        5.68031
H         13.00072       -4.92419        4.54447
H         12.80098       -6.53360        6.45732
H         12.80049       -5.18281        7.59361
H         15.08391       -5.87678        5.67015
H         15.05656       -6.18496        7.41561
H         15.08328       -4.51839        6.81189
