28

C          2.07373        3.07949       -1.06622
C          2.18516        2.66128        0.38491
C          2.97721        1.37928        0.61366
P          4.80721        1.37928        0.61366
O          4.79650        1.10395        2.12224
O          4.76492       -0.07552       -0.19045
C          4.77091       -0.26788       -1.60606
C          3.69731        0.40877       -2.43185
O          6.53721        1.37928        0.61366
C          7.28874        1.36008       -0.57826
C          8.76075        1.55899       -0.27775
H          1.37725        3.91699       -1.16727
H          1.67632        2.26776       -1.69043
H          3.05541        3.38803       -1.45274
H          1.15985        2.47769        0.73961
H          2.59163        3.48083        0.98513
H          2.57473        0.60646       -0.04525
H          2.65495        1.02078        1.60315
H          4.68558       -1.34879       -1.76194
H          5.72221        0.01170       -2.04891
H          2.69285        0.16801       -2.08158
H          3.76721        0.08266       -3.47616
H          3.83498        1.49104       -2.42425
H          6.91435        2.11936       -1.27098
H          7.23165        0.36720       -1.01814
H          8.93537        2.48242        0.28064
H          9.33913        1.57855       -1.20749
H          9.13335        0.72899        0.33471
