40

C          1.41100        1.44803        0.19103
C          2.72946        0.69630        0.09255
C          3.03429        0.34634       -1.36429
C          4.33863       -0.42232       -1.52770
N          4.79763       -0.72382       -2.90026
C          3.93849       -1.13334       -3.92694
S          2.71712       -0.18637       -4.58553
S          4.32848       -2.69248       -4.65723
C          2.97645       -3.70750       -3.97640
C          2.98555       -5.07781       -4.65360
C          2.00527       -6.03972       -4.00039
C          6.25896       -0.82820       -3.07053
C          6.91833       -1.88659       -2.17870
C          8.44162       -1.89235       -2.33349
C          9.08039       -2.90476       -1.39450
H          1.18327        1.69618        1.23150
H          0.58807        0.84240       -0.20313
H          1.45000        2.38073       -0.38188
H          2.67611       -0.21674        0.69709
H          3.53442        1.31686        0.50913
H          3.07819        1.27563       -1.94680
H          2.20128       -0.25682       -1.74231
H          4.26762       -1.38216       -1.00159
H          5.13317        0.15960       -1.04305
H          2.00942       -3.22253       -4.14191
H          3.12903       -3.80755       -2.89689
H          3.98704       -5.52296       -4.60708
H          2.72366       -4.97270       -5.71374
H          2.25212       -6.19253       -2.94523
H          2.04542       -7.01325       -4.50076
H          0.97892       -5.66664       -4.06627
H          6.67281        0.15973       -2.84628
H          6.49764       -1.02567       -4.12359
H          6.51958       -2.88093       -2.40895
H          6.67929       -1.69051       -1.12740
H          8.84315       -0.89594       -2.11276
H          8.71515       -2.13098       -3.36763
H          8.84644       -2.67074       -0.35055
H         10.16902       -2.89932       -1.50677
H          8.72038       -3.91643       -1.60692
