50

C          5.93692        4.07757       -0.97376
C          5.56051        2.64141       -0.66770
O          6.12680        2.30739        0.59147
C          5.81604        0.97389        0.99562
C          6.45718        0.76617        2.35743
O          6.16403       -0.53069        2.87431
C          6.88727       -0.86311        3.99296
C          7.66176        0.02239        4.73746
C          8.42282       -0.43677        5.81228
C          8.41704       -1.78922        6.19381
C          7.59128       -2.65929        5.46267
C          6.83182       -2.19973        4.37768
C          9.32261       -2.25319        7.34540
C          9.13197       -1.41291        8.66678
C          7.78531       -1.36988        9.46815
C          7.43153       -2.71302       10.12439
C          7.96321       -0.35174       10.62429
C          6.59322       -0.89068        8.62817
C          9.23923       -3.76825        7.62686
C         10.78830       -2.02346        6.85983
H          5.52915        4.39243       -1.93752
H          7.02592        4.19486       -0.99283
H          5.56170        4.74845       -0.19316
H          5.95730        1.97409       -1.43973
H          4.47127        2.54019       -0.62210
H          6.21629        0.25375        0.27235
H          4.73126        0.83350        1.05723
H          6.07817        1.53541        3.04253
H          7.54091        0.90287        2.23941
H          7.71462        1.08120        4.50897
H          9.03208        0.28947        6.34292
H          7.52086       -3.71534        5.70727
H          6.21066       -2.89898        3.82352
H          9.39997       -0.37000        8.44079
H          9.91042       -1.74224        9.37161
H          8.24446       -3.06731       10.76766
H          7.20257       -3.48863        9.39541
H          6.53530       -2.61700       10.74955
H          8.74379       -0.67532       11.32215
H          7.03567       -0.23856       11.19877
H          8.23820        0.63937       10.24712
H          6.32852       -1.60686        7.84760
H          6.79739        0.08149        8.16690
H          5.69767       -0.76856        9.24927
H          8.21997       -4.11110        7.80685
H          9.85345       -4.04543        8.49072
H          9.60680       -4.35087        6.77216
H         10.99035       -0.97596        6.60910
H         11.00261       -2.61373        5.95924
H         11.51231       -2.31735        7.62792
