25

C          2.12971        0.76508       -1.09116
C          2.26665       -0.37503       -0.07242
C          3.10384       -0.05702        1.19073
C          2.53129        1.03847        2.14563
C          1.07331        0.89234        2.70364
C          0.73018       -0.34063        3.60282
S         -1.03454       -0.36734        4.29245
F         -0.69336       -1.84437        5.08942
F         -0.54549        0.49918        5.68791
F         -2.63498       -0.40703        4.90188
F         -1.46534        1.10506        3.53668
F         -1.57721       -1.22749        2.91527
F          0.91107       -1.49851        2.86790
F          1.61626       -0.40208        4.66593
F          0.85415        2.02955        3.46677
F          0.19453        0.91456        1.63648
F          3.40350        1.14912        3.21722
F          2.58087        2.24841        1.47316
F          3.26103       -1.23064        1.90539
F          4.36793        0.34279        0.78353
H          1.43871        0.44272       -1.89957
H          3.11019        1.00291       -1.55803
H          1.70170        1.68125       -0.64378
H          2.74983       -1.22186       -0.61004
H          1.26216       -0.71663        0.23854
