47

C          0.91642        0.00860        0.05234
C          2.43604       -0.00402        0.05976
C          2.97561       -1.20043        0.83988
C          4.50340       -1.21363        0.84701
C          5.03656       -2.41308        1.62792
C          6.56337       -2.42923        1.63696
C          7.09243       -3.63087        2.41651
C          8.61912       -3.64732        2.42865
C          9.14643       -4.84899        3.20806
C         10.67340       -4.86688        3.22076
C         11.19917       -6.06929        4.00130
C         12.72644       -6.09016        4.01650
C         13.24933       -7.29367        4.79873
C         14.77627       -7.32102        4.81780
C         15.29546       -8.51838        5.59545
H          0.54715        0.87171       -0.50994
H          0.52062        0.07084        1.07111
H          0.51983       -0.89802       -0.41552
H          2.80297        0.92798        0.50517
H          2.80211       -0.03684       -0.97300
H          2.60251       -2.13009        0.39400
H          2.60418       -1.16541        1.87186
H          4.87890       -0.28575        1.29529
H          4.87699       -1.24966       -0.18369
H          4.66141       -3.34123        1.17949
H          4.66291       -2.37785        2.65849
H          6.93959       -1.50268        2.08745
H          6.93835       -2.46402        0.60684
H          6.71731       -4.55747        1.96506
H          6.71623       -3.59733        3.44629
H          8.99422       -2.72095        2.88029
H          8.99552       -3.68071        1.39885
H          8.77121       -5.77499        2.75541
H          8.76965       -4.81620        4.23746
H         11.04869       -3.94074        3.67219
H         11.05028       -4.90143        2.19122
H         10.82238       -6.99486        3.54920
H         10.82065       -6.03442        5.03003
H         13.10296       -5.16421        4.46791
H         13.10439       -6.12592        2.98749
H         12.87018       -8.21837        4.34684
H         12.86870       -7.25693        5.82677
H         15.15956       -6.40029        5.27333
H         15.16121       -7.36057        3.79234
H         14.95104       -8.49042        6.63430
H         16.39008       -8.52232        5.60020
H         14.95383       -9.45639        5.14487
