26

F          2.91595        0.91516       -0.41920
C          2.19954        0.08711        0.37587
C          2.53850       -1.36576        0.09771
C          2.10982       -1.83456       -1.28231
C          2.75375       -1.16982       -2.49339
C          4.26660       -1.25351       -2.62740
C          4.92124       -2.63099       -2.65818
C          4.46185       -3.51946       -3.78570
C          5.25936       -4.82240       -3.80192
F          5.97242       -5.03926       -2.67742
F          4.43778       -5.89036       -3.95696
F          6.13022       -4.85702       -4.83946
F          3.13610       -3.79145       -3.62632
F          4.55821       -2.87755       -4.98216
F          6.27705       -2.45847       -2.74315
F          4.70806       -3.24475       -1.46329
F          4.64161       -0.57675       -3.75787
F          4.82497       -0.53059       -1.60395
F          2.19150       -1.69078       -3.62773
F          2.37109        0.14449       -2.52278
F          2.32417       -3.18102       -1.37266
F          0.75231       -1.67967       -1.37861
F          3.86338       -1.59820        0.28462
F          1.89690       -2.14141        1.02650
F          2.54867        0.40566        1.65104
H          1.13687        0.29837        0.25662
