32

C          0.93157       -0.01934        0.06472
C          2.45007       -0.02806        0.09741
C          2.98264        0.00371        1.53061
C          4.51036        0.01690        1.53690
C          5.07819        0.09458        2.95669
C          6.61145        0.08942        2.98896
C          7.22256        1.29781        2.28183
C          8.74784        1.26891        2.29443
O          9.25532        2.39734        1.56186
C          9.28442        2.25437        0.20851
O          8.94927        1.25209       -0.40973
C          9.76390        3.51212       -0.44892
H          0.57562       -0.04829       -0.96974
H          0.53553        0.88626        0.53511
H          0.52282       -0.88796        0.59020
H          2.82488        0.84023       -0.45916
H          2.81785       -0.92439       -0.41591
H          2.61616       -0.86849        2.08432
H          2.60560        0.89747        2.04259
H          4.84387        0.87822        0.94891
H          4.89099       -0.88302        1.03893
H          4.71549       -0.76247        3.53718
H          4.70590        0.99683        3.45680
H          6.98112       -0.83593        2.53062
H          6.94035        0.07856        4.03544
H          6.87211        2.22706        2.74733
H          6.88533        1.34160        1.24217
H          9.14523        0.33272        1.88455
H          9.11834        1.35676        3.32088
H         10.02656        4.26761        0.29723
H          8.96843        3.91391       -1.08203
H         10.65321        3.29043       -1.04429
