39

C          0.97013       -0.08170       -0.01120
C          2.48995       -0.07945        0.00294
C          3.03249        0.12483        1.41615
C          4.56103        0.12673        1.42794
C          5.10004        0.33025        2.84315
C          6.62830        0.33398        2.85847
C          7.15985        0.53676        4.27597
C          8.68800        0.54429        4.30488
C          9.20005        0.74156        5.73070
C         10.72952        0.73888        5.78619
C         11.24265        0.93744        7.20954
O         10.78711       -0.14072        8.02428
C         11.18584        0.01481        9.37828
H          0.60080       -0.22919       -1.03097
H          0.57369        0.86836        0.36032
H          0.57351       -0.88795        0.61413
H          2.85540        0.71719       -0.65547
H          2.85607       -1.02965       -0.40301
H          2.66078       -0.67140        2.07198
H          2.66109        1.07515        1.81907
H          4.93405        0.92438        0.77405
H          4.93388       -0.82302        1.02547
H          4.72756       -0.46785        3.49704
H          4.72594        1.27918        3.24659
H          7.00186        1.13313        2.20690
H          7.00356       -0.61479        2.45620
H          6.78408       -0.26313        4.92603
H          6.78017        1.48409        4.67789
H          9.06690        1.34640        3.66042
H          9.06893       -0.40276        3.90310
H          8.80190       -0.05643        6.36894
H          8.82154        1.69097        6.12879
H         11.12714        1.53272        5.14353
H         11.09737       -0.21935        5.39898
H         10.87822        1.88955        7.61283
H         12.33829        0.95097        7.20640
H         10.78602       -0.82547        9.95209
H         10.78253        0.94352        9.79348
H         12.27680        0.00699        9.45792
