19

C          1.33938       -0.27905        0.40948
C          2.81434       -0.21117        0.02523
C          3.20073        0.97092       -0.88850
C          2.59440        0.94889       -2.33007
S          3.15859        2.30532       -3.38737
F          4.10012        3.05443       -2.16937
F          4.52369        1.39108       -3.87600
F          3.66356        3.51936       -4.33368
F          2.24523        1.64114       -4.67533
F          1.81812        3.26798       -2.92322
F          2.94082       -0.26146       -2.91235
F          1.21290        0.99140       -2.24040
F          2.82985        2.14270       -0.24354
F          4.58289        0.93400       -0.99113
H          1.19452       -1.10126        1.14201
H          0.69948       -0.49515       -0.46927
H          1.01431        0.67133        0.88651
H          3.12630       -1.17163       -0.43804
H          3.38685       -0.09074        0.97059
