36

C          0.92118       -0.03083        0.03064
C          2.44107       -0.04838        0.04518
C          2.97521       -0.98710        1.12541
C          4.50321       -1.00483        1.14200
C          5.03153       -1.94772        2.22350
C          6.55902       -1.96535        2.23941
C          7.09623       -2.90913        3.31602
C          8.62453       -2.91138        3.31961
C          9.18645       -3.84137        4.39823
C         10.71244       -3.84555        4.40041
O         11.18226       -2.53037        4.68925
C         12.59983       -2.45587        4.65580
H          0.55671        0.64612       -0.74778
H          0.52433        0.31140        0.99211
H          0.52016       -1.02915       -0.17056
H          2.81177        0.96919        0.21882
H          2.80765       -0.36379       -0.93823
H          2.59850       -2.00199        0.94901
H          2.60138       -0.66969        2.10652
H          4.88179        0.00909        1.32045
H          4.87882       -1.32214        0.16148
H          4.65326       -2.96173        2.04546
H          4.65713       -1.63047        3.20420
H          6.93551       -0.95079        2.41965
H          6.93364       -2.27836        1.25703
H          6.72455       -3.92517        3.13693
H          6.72497       -2.59584        4.29936
H          8.98437       -1.88868        3.48442
H          8.99337       -3.22788        2.33638
H          8.82121       -4.86216        4.23792
H          8.82361       -3.50847        5.37798
H         11.09060       -4.17079        3.42405
H         11.07636       -4.53687        5.16861
H         12.89351       -1.42245        4.85800
H         12.97653       -2.73826        3.66796
H         13.03382       -3.10121        5.42508
