61

C          4.96307        0.80721       -3.12390
C          4.52416        1.60656       -1.89394
C          5.39973        1.34481       -0.66496
C          4.96991        2.14242        0.57097
C          5.87252        1.94017        1.77933
O          7.25398        2.33727        1.45937
C          7.57974        3.61505        1.65618
O          6.88647        4.46842        2.18006
C          8.97369        3.87796        1.07963
C          9.53385        5.20315        1.44696
N         10.59020        5.33817        2.20017
N         10.78728        6.70101        2.30013
C          9.85861        7.39481        1.58704
N          9.71399        8.71114        1.45762
N          9.04278        6.44939        1.04227
C          7.78390        6.77088        0.35759
C          7.93743        7.10224       -1.13754
O          8.12650        5.93711       -1.98249
C          7.09770        5.03946       -2.08776
O          6.07075        5.11624       -1.44527
C          7.41421        3.96734       -3.10423
S          8.69367        2.79330       -2.52184
C          6.78893        8.01303       -1.62135
O          7.26943        9.09117       -2.45953
C          8.05270       10.01171       -1.86760
O          8.35497        9.98494       -0.67726
C          8.54505       11.03332       -2.85729
S         10.01178       10.35050       -3.72515
C         11.93417        7.19971        3.05995
C         13.22744        7.37466        2.21156
F         13.56643        6.18604        1.66238
F         12.94744        8.26210        1.20579
F         11.59116        8.42674        3.55793
F         12.17113        6.36208        4.07445
H          4.34266        1.03907       -4.00004
H          4.88860       -0.27469       -2.94333
H          6.01177        1.01207       -3.39313
H          3.47548        1.36396       -1.65593
H          4.53233        2.68735       -2.11665
H          6.44862        1.58735       -0.90569
H          5.39142        0.26641       -0.42914
H          3.95255        1.84748        0.87837
H          4.91705        3.21661        0.33207
H          5.96875        0.88171        2.05208
H          5.53789        2.52074        2.64753
H          8.91636        3.75082       -0.01829
H          9.67106        3.10991        1.43738
H         10.36495        9.32667        1.93042
H          9.12561        9.12222        0.71725
H          7.36598        7.64622        0.87276
H          7.08772        5.94699        0.53425
H          8.88253        7.63771       -1.29524
H          7.73053        4.41024       -4.05605
H          6.50914        3.37277       -3.26333
H          9.76140        3.57048       -2.82031
H          6.24144        8.44346       -0.77257
H          6.08235        7.46852       -2.25196
H          8.79366       11.97122       -2.35184
H          7.79533       11.21322       -3.63643
H         10.89695       10.60489       -2.73306
H         14.05361        7.76233        2.82885
