55

N          2.02927        0.84180        0.93009
C          2.01928        0.49790       -0.51841
C          3.06378        1.26115       -1.33441
C          4.57955        1.02150       -1.03533
N          4.87356       -0.41233       -0.89781
C          4.73021       -1.01603        0.42381
C          5.23080       -0.15294        1.58430
N          4.64083        1.22736        1.48863
C          5.06040        1.84529        0.18705
C          5.04866        2.02730        2.69049
C          4.48618        3.44776        2.78431
O          3.03250        3.52654        2.82391
C          2.36297        3.01166        3.89626
O          2.86298        2.28994        4.73378
C          0.92192        3.48398        3.93823
S         -0.07132        3.22210        2.42441
C          5.14473        4.16476        3.97531
O          4.61589        5.48712        4.16759
C          5.07671        6.44469        3.30292
O          5.86775        6.21505        2.41105
C          4.45447        7.78760        3.59813
S          2.89769        7.99165        2.65130
C          5.32827        1.57103       -2.29450
C          6.82810        1.61670       -2.27263
C          7.62800        2.67130       -2.07302
Br         6.98812        4.40921       -1.67461
Br         7.74134       -0.02473       -2.69843
H          1.54277        0.11274        1.45753
H          1.48234        1.69674        1.11130
H          1.02911        0.69518       -0.95768
H          2.19607       -0.58025       -0.62313
H          2.86157        2.34449       -1.28185
H          2.89715        0.96862       -2.38210
H          5.78852       -0.63218       -1.29255
H          5.28904       -1.96139        0.43094
H          3.68031       -1.28592        0.61497
H          6.32623       -0.04284        1.56973
H          4.93066       -0.57995        2.55124
H          3.51903        1.09594        1.41590
H          6.15901        1.90813        0.19752
H          4.65480        2.86277        0.14001
H          6.14773        2.10027        2.67216
H          4.75135        1.44921        3.57358
H          4.72894        4.02385        1.88239
H          0.90464        4.55358        4.18848
H          0.41519        2.93286        4.73809
H          0.39504        4.29390        1.74163
H          6.22647        4.22203        3.78399
H          4.95289        3.64038        4.91743
H          5.15984        8.58386        3.33901
H          4.16786        7.86876        4.65296
H          3.48603        8.08100        1.43465
H          4.97026        2.59526       -2.47962
H          5.00601        0.95388       -3.14649
H          8.71267        2.62614       -2.13477
