49

O          9.78200       -0.83112        2.33193
C          9.04003        0.37997        2.24600
C          8.26758        0.32051        0.93469
O          7.57227        1.56644        0.80293
C          6.75422        1.65083       -0.35072
C          6.02375        2.98713       -0.31223
N          6.80706        4.15272       -0.79741
C          6.12937        5.26318       -1.14215
N          6.65723        6.28074       -1.84729
C          7.58110        6.24119       -2.97806
C          8.36260        7.54847       -3.07692
C          9.21315        7.66936       -4.32302
Br        10.61879        6.28306       -4.33859
Br         7.07840        9.07873       -3.13752
N          4.84143        5.40200       -0.74902
C          8.28609        4.16503       -0.60584
C          8.81635        5.37139        0.13593
C          9.97034        6.01293       -0.32273
C         10.50108        7.09079        0.39462
C          9.88038        7.53040        1.56165
C          8.72479        6.89225        2.04857
C          8.21087        5.81135        1.32289
C          8.07679        7.35360        3.32819
H         10.22677       -0.86436        3.19189
H          9.69973        1.26817        2.23735
H          8.32913        0.49084        3.08441
H          7.55106       -0.52033        0.94603
H          8.96443        0.16958        0.08973
H          5.99135        0.84971       -0.34605
H          7.34284        1.53603       -1.28219
H          5.71158        3.14466        0.73583
H          5.12460        2.91569       -0.93832
H          6.16019        7.17199       -1.77904
H          7.02330        6.06058       -3.91285
H          8.30337        5.42520       -2.86153
H          8.93962        7.72775       -2.16258
H          9.74312        8.62431       -4.35496
H          8.63684        7.52596       -5.24314
H          4.48801        4.93434        0.07596
H          4.25260        6.10720       -1.17448
H          8.79788        4.04635       -1.57250
H          8.49943        3.25932       -0.02215
H         10.46345        5.67110       -1.23491
H         11.40383        7.58681        0.03607
H         10.29804        8.37542        2.11226
H          7.32783        5.29309        1.70775
H          8.76993        7.25802        4.17659
H          7.17772        6.76968        3.56345
H          7.78946        8.41349        3.26841
