42

N          3.25562       -2.63966       -2.37027
C          2.93265       -1.42361       -3.13383
C          3.24823       -0.14197       -2.32145
C          4.67519       -0.09492       -1.87742
N          5.26446       -1.15830       -1.40259
C          6.71007       -1.08695       -1.09526
C          7.06200        0.43443       -1.18367
S          5.66043        1.30656       -1.98646
C          7.47893       -1.95609       -2.11494
C          7.30538       -1.58397       -3.59752
C          7.64880       -2.73284       -4.55561
S          6.43899       -4.07277       -4.44269
O          6.69105       -4.88761       -3.26821
O          5.12616       -3.50327       -4.66395
O          6.79408       -4.93889       -5.75443
C          6.95582       -1.56678        0.35775
C          6.83703       -3.07661        0.58177
C          6.99868       -3.42134        2.07667
F          6.10438       -2.77787        2.85825
F          6.82375       -4.75493        2.26001
F          8.24339       -3.09971        2.50700
O          5.57295       -3.51273        0.10236
H          3.52621       -3.39177       -3.00590
H          2.46694       -2.95870       -1.80717
H          1.87867       -1.37142       -3.44722
H          3.53970       -1.43104       -4.04891
H          2.61482       -0.10366       -1.41890
H          3.00694        0.75273       -2.91054
H          4.69131       -2.05629       -1.47830
H          7.96901        0.61642       -1.77117
H          7.19526        0.87930       -0.18985
H          7.14799       -2.99247       -1.96810
H          8.54638       -1.92951       -1.84340
H          7.94574       -0.73142       -3.86857
H          6.27249       -1.27289       -3.80960
H          8.63097       -3.18451       -4.35683
H          7.61533       -2.40242       -5.60218
H          7.24148       -5.76002       -5.46947
H          6.24507       -1.04497        1.01571
H          7.96691       -1.25504        0.65730
H          7.66066       -3.60989        0.07359
H          5.53964       -4.48286        0.14715
