68

C          0.65343        0.07485       -0.36298
C          2.18059        0.02917       -0.26632
C          2.74722        0.92558        0.84074
C          4.27582        0.88889        0.93905
C          4.84594        1.78652        2.04260
C          6.37638        1.76460        2.11778
C          6.95543        2.65914        3.21915
C          8.48746        2.66644        3.25564
C          9.07793        3.53911        4.36821
C         10.61000        3.58567        4.35889
C         11.20549        4.42884        5.49268
C         12.74165        4.42222        5.56600
C         13.47663        4.96486        4.32695
C         13.20032        6.46002        4.07731
C         13.62590        6.93476        2.69309
C         15.13275        7.11698        2.35820
N         15.94942        5.93347        2.23395
C         15.07141        7.89282        1.03147
C         13.94422        8.90153        1.20886
N         13.01990        8.31936        2.30065
C         12.78782        9.29877        3.42882
C         11.95537       10.49960        2.98325
C         11.81676       11.50974        4.11830
F         13.09083       11.97042        4.47599
H          0.28051       -0.57669       -1.16511
H          0.29641        1.09467       -0.57085
H          0.18358       -0.25325        0.57619
H          2.62029        0.32684       -1.23354
H          2.50834       -1.01000       -0.09407
H          2.31077        0.62650        1.81011
H          2.41691        1.96583        0.67086
H          4.70964        1.18655       -0.03215
H          4.60557       -0.15107        1.10917
H          4.42717        1.47896        3.01677
H          4.50365        2.82422        1.88204
H          6.79131        2.07381        1.14182
H          6.71942        0.72702        2.27455
H          6.56777        2.33027        4.19898
H          6.58874        3.69200        3.08195
H          8.87054        3.01109        2.27802
H          8.85505        1.63226        3.37317
H          8.73158        3.16734        5.34774
H          8.67946        4.56602        4.28015
H         10.94448        3.96933        3.37780
H         11.00794        2.55809        4.42686
H         10.82276        4.05453        6.45541
H         10.82321        5.46345        5.42208
H         13.08461        3.38878        5.73054
H         13.06607        4.99040        6.45348
H         13.18826        4.38325        3.43638
H         14.55477        4.79998        4.46214
H         13.68870        7.05780        4.86328
H         12.11363        6.61733        4.18436
H         13.20251        6.24870        1.93855
H         15.59023        7.74998        3.13920
H         15.54623        5.22978        1.61486
H         16.16371        5.49782        3.12749
H         14.85425        7.19038        0.21249
H         16.02164        8.38555        0.79823
H         13.34812        9.08483        0.30855
H         14.30909        9.86285        1.58703
H         12.10134        8.13339        1.88247
H         13.77435        9.60897        3.79621
H         12.27314        8.75833        4.23161
H         10.94389       10.17797        2.68237
H         12.41002       11.00886        2.12052
H         11.35948       11.06504        5.01670
H         11.21832       12.37475        3.79989
