63

C         12.75235        0.56036       -0.82681
C         11.69206        0.69754       -1.92258
C         10.32797        0.14068       -1.49335
C          9.26531        0.29751       -2.56630
O          8.02176       -0.23796       -2.03879
C          6.90054       -0.03664       -2.82717
N          6.82391       -0.94586       -4.00076
N          7.00227       -0.41187       -5.26254
C          6.84236       -1.41297       -6.07621
N          6.56106       -2.58594       -5.40387
C          6.57915       -2.28053       -4.06700
N          6.40626       -3.18183       -3.09680
C          6.45905       -2.98825       -1.63565
C          6.80403       -4.31855       -0.96951
C          6.82911       -4.16498        0.55435
S          6.84974       -5.74380        1.43644
C          5.10507       -6.18833        1.42209
S          3.93184       -5.21920        0.73114
N          4.85829       -7.36533        2.04284
C          5.87787       -8.23837        2.63718
C          5.69808       -9.66700        2.11310
O          4.38639      -10.15582        2.35744
C          3.41059       -9.32161        1.73319
C          3.49507       -7.88034        2.22996
C          6.37677       -3.91965       -5.97339
C          7.70607       -4.69571       -6.07524
C          7.44529       -6.18991       -6.27227
O          6.68989       -6.62401       -5.13984
O          8.54950       -4.14342       -7.07447
H         13.71843        0.96462       -1.15595
H         12.90971       -0.49222       -0.54963
H         12.45833        1.10292        0.08324
H         12.03279        0.17911       -2.83427
H         11.58348        1.75957       -2.19781
H          9.98429        0.65277       -0.58048
H         10.42407       -0.92774       -1.23820
H          9.54053       -0.24558       -3.48751
H          9.10834        1.35880       -2.82874
H          6.85073        0.96801       -3.27582
H          6.01837       -0.21509       -2.19961
H          6.91793       -1.35441       -7.15655
H          6.18871       -4.12830       -3.40174
H          5.47906       -2.64091       -1.27060
H          7.21582       -2.22432       -1.41139
H          7.77600       -4.68682       -1.33220
H          6.03306       -5.05979       -1.23283
H          5.94453       -3.61566        0.90958
H          7.73777       -3.64870        0.89756
H          5.76951       -8.21997        3.73472
H          6.88313       -7.88041        2.38556
H          6.38879      -10.34670        2.62971
H          5.92155       -9.69017        1.02745
H          2.43100       -9.74875        1.98463
H          3.53794       -9.34662        0.63289
H          3.25427       -7.83565        3.30570
H          2.80476       -7.22717        1.68393
H          5.93088       -3.79513       -6.97023
H          5.64706       -4.47246       -5.36484
H          8.25793       -4.57285       -5.12874
H          8.41686       -6.70533       -6.34610
H          6.88911       -6.35933       -7.21650
H          6.57624       -7.58571       -5.18167
H          8.26656       -4.46009       -7.94951
