81

C         -0.27047       -0.25894        0.14477
C          1.24097       -0.46797        0.02053
C          2.05851        0.46172        0.92409
C          3.57356        0.28576        0.77984
C          4.38663        1.20735        1.69443
C          5.90227        1.05306        1.53100
C          6.71043        1.97500        2.44940
C          8.22535        1.85487        2.25522
C          9.02274        2.78905        3.17324
C         10.53356        2.73938        2.90361
C         11.35500        3.58182        3.87826
O         12.76089        3.52164        3.67313
C         13.19353        4.35020        2.63505
N         12.95286        5.78410        3.00120
C         11.71218        6.01834        3.53146
N         11.22834        7.28618        3.68101
C          9.98794        7.55876        4.22401
N          9.06697        6.70876        4.57463
N          8.01966        7.46030        5.09953
C          8.37894        8.71395        4.99699
O          9.66147        8.85144        4.44052
S          7.42509       10.09293        5.39724
C          8.65918       11.45754        5.37077
C          7.92215       12.74532        5.73247
N         10.93673        4.99812        3.85678
C         14.00958        6.76308        2.88662
C         14.72494        7.24196        4.22048
C         15.44554        6.19074        5.15759
C         16.70335        5.35208        4.68334
C         18.01808        6.04155        4.13405
C         18.84217        7.07742        5.00035
C         19.46556        6.67674        6.39843
C         20.47552        5.47086        6.46499
F         21.43003        5.59000        5.52838
F         21.04793        5.46801        7.67847
F         19.83183        4.30117        6.29158
F         20.13017        7.78168        6.81735
F         18.45412        6.42319        7.26955
F         19.85393        7.48273        4.19588
F         18.03410        8.14577        5.24195
F         18.84780        5.02401        3.79813
F         17.67172        6.69865        2.99286
F         17.02890        4.56946        5.73402
F         16.27508        4.53679        3.67020
F         15.78520        6.86722        6.27557
F         14.49757        5.26333        5.48740
F         15.58049        8.22608        3.88738
F         13.73433        7.78292        4.99981
F         14.93016        6.29639        2.02755
F         13.48747        7.92119        2.33799
H         -0.82741       -0.94997       -0.50270
H         -0.55647        0.76507       -0.13949
H         -0.61391       -0.42200        1.17742
H          1.54908       -0.31856       -1.02841
H          1.48960       -1.51587        0.26070
H          1.76893        0.29327        1.97659
H          1.79127        1.51075        0.70361
H          3.86292        0.46620       -0.27069
H          3.84159       -0.76492        0.98935
H          4.11060        1.01458        2.74618
H          4.10511        2.25708        1.49715
H          6.17717        1.25295        0.48029
H          6.18741        0.00400        1.72300
H          6.45695        1.75780        3.50173
H          6.40479        3.02192        2.27555
H          8.47662        2.07768        1.20346
H          8.54242        0.81266        2.42939
H          8.82482        2.52435        4.22652
H          8.64709        3.81812        3.03764
H         10.73862        3.06124        1.86933
H         10.90599        1.70815        3.00168
H         11.20687        3.22478        4.90961
H         12.66382        4.15794        1.68808
H         14.26565        4.19584        2.50966
H         11.78030        8.06655        3.33327
H          9.09511       11.51393        4.36551
H          9.44684       11.22325        6.09838
H          7.13228       12.97871        5.00583
H          8.63625       13.57929        5.73290
H          7.47051       12.68895        6.73197
H          9.97530        5.26013        4.18732
