70

C          1.41717        0.96580        0.36886
C          2.51752        0.09334       -0.23944
C          3.22091        0.74946       -1.43296
C          4.31365       -0.12589       -2.05347
C          5.02313        0.52903       -3.24334
C          6.16081       -0.33308       -3.80179
C          6.88290        0.32831       -4.96085
O          8.04549       -0.48058       -5.26663
C          8.97138        0.13327       -6.14248
C         10.32287       -0.34078       -5.70974
N         10.79522       -1.60916       -5.80641
C         10.10485       -2.79494       -6.35929
C          9.37594       -3.60291       -5.28116
C          8.79338       -4.89355       -5.86626
C          8.03169       -5.72176       -4.81462
N          7.57625       -6.99534       -5.33504
C          6.41190       -7.19873       -6.04962
C          6.40370       -8.50640       -6.49531
C          7.60849       -9.11683       -6.04575
C          8.31498       -8.16278       -5.33897
C         12.02436       -1.61288       -5.19885
N         12.33822       -0.42336       -4.74152
N         11.27034        0.35630       -5.06353
C         11.28899        1.78993       -4.68745
C         10.08800        2.22566       -3.87783
C          9.41919        3.40250       -4.23128
C          8.34035        3.84471       -3.46005
C          7.92470        3.10880       -2.35220
C          8.58020        1.92031       -1.98249
C          9.66538        1.49475       -2.75796
C          8.13635        1.14588       -0.76986
H          0.94167        0.47205        1.22677
H          0.62877        1.18465       -0.36640
H          1.81672        1.92886        0.72045
H          2.08797       -0.87095       -0.55915
H          3.26606       -0.15217        0.53298
H          3.65985        1.71167       -1.11344
H          2.47218        1.00215       -2.20396
H          3.87537       -1.08668       -2.37400
H          5.05943       -0.38202       -1.27963
H          5.42799        1.50876       -2.93687
H          4.28722        0.74116       -4.03717
H          5.77205       -1.31333       -4.12169
H          6.90098       -0.52878       -3.00936
H          7.21733        1.34295       -4.68668
H          6.23971        0.40257       -5.85622
H          8.94098        1.23211       -6.07084
H          8.79237       -0.13908       -7.20103
H         10.87764       -3.39715       -6.85721
H          9.41104       -2.44195       -7.13310
H          8.58679       -2.97411       -4.84213
H         10.08499       -3.84650       -4.47223
H          9.59845       -5.51869       -6.28463
H          8.11051       -4.66385       -6.69984
H          7.15979       -5.16029       -4.44516
H          8.67830       -5.91840       -3.94552
H          5.68305       -6.40224       -6.16307
H          5.60975       -8.97623       -7.06641
H          7.91244      -10.14692       -6.20093
H          9.26808       -8.21851       -4.82246
H         12.65395       -2.49280       -5.11470
H         11.37790        2.38114       -5.60953
H         12.22798        1.89764       -4.12829
H          9.74334        3.97921       -5.09999
H          7.82235        4.76509       -3.73044
H          7.07984        3.46036       -1.75702
H         10.19074        0.57864       -2.47587
H          8.36104        1.70308        0.15183
H          8.63902        0.17316       -0.70213
H          7.05132        0.97223       -0.78121
