85

C          1.91090        0.73146       -1.47805
C          2.86747       -0.09664       -1.05682
C          3.03716       -0.53428        0.38306
C          4.43609       -0.32540        0.88401
N          5.39048       -1.31937        0.71214
C          6.58310       -0.92314        1.18439
N          6.40668        0.31982        1.65872
C          5.09279        0.73640        1.48962
C          4.69120        2.10891        1.93520
C          3.20254        2.45601        1.82592
C          2.89891        3.87846        2.30712
C          1.42444        4.25035        2.12096
C          1.08058        5.67157        2.57703
C         -0.37779        6.05097        2.30093
C         -0.73795        7.47863        2.72360
C         -2.16765        7.87720        2.34477
C         -2.53134        9.31487        2.72826
C         -3.93242        9.72912        2.26589
C         -4.28116       11.18090        2.60409
C         -5.65422       11.59686        2.05874
N         -5.97805       12.99315        2.31895
C         -6.57645       13.47708        3.46086
C         -6.60939       14.86122        3.38241
C         -6.00228       15.22742        2.15336
C         -5.61814       14.05564        1.51979
C          7.86666       -1.70114        1.14837
C          8.57752       -1.76395       -0.26504
C          8.90586       -0.41527       -1.02430
C          9.86436        0.68441       -0.41156
C         11.35629        0.36059        0.00207
C         12.40935       -0.17522       -1.05067
C         12.78892        0.65930       -2.34026
C         13.36740        2.11264       -2.16083
F         14.36300        2.12679       -1.26038
F         13.83886        2.52813       -3.34552
F         12.40175        2.96332       -1.76158
F         13.73665       -0.07615       -2.97013
F         11.69660        0.74033       -3.14471
F         13.54364       -0.37798       -0.33923
F         11.96159       -1.37948       -1.49740
F         11.84133        1.50705        0.53934
F         11.30072       -0.57732        0.98544
F          9.86575        1.70398       -1.29503
F          9.25752        1.13518        0.73841
F          9.36921       -0.76224       -2.24035
F          7.70169        0.22501       -1.19213
F          9.68644       -2.51373       -0.14823
F          7.69142       -2.41727       -1.08102
F          8.71699       -1.18788        2.07428
F          7.59043       -3.00035        1.47312
H          1.81571        0.99600       -2.53069
H          1.17852        1.16419       -0.79298
H          3.57862       -0.51716       -1.77510
H          2.79909       -1.60838        0.47767
H          2.32684       -0.00659        1.02925
H          5.21716       -2.23372        0.30015
H          7.15391        0.87867        2.06598
H          5.27665        2.83758        1.34616
H          5.02102        2.23635        2.98141
H          2.60904        1.74118        2.41878
H          2.87945        2.35796        0.77846
H          3.53013        4.59518        1.75363
H          3.17903        3.97978        3.36975
H          0.79288        3.52807        2.66752
H          1.15874        4.13935        1.05462
H          1.74580        6.38937        2.06586
H          1.29433        5.77458        3.65501
H         -1.04656        5.33689        2.81278
H         -0.58070        5.93272        1.22165
H         -0.02943        8.18521        2.25657
H         -0.59835        7.58743        3.81321
H         -2.88149        7.17915        2.81642
H         -2.29863        7.75048        1.25534
H         -1.78860       10.00602        2.29272
H         -2.45204        9.43735        3.82232
H         -4.68172        9.05299        2.71382
H         -4.00784        9.58112        1.17387
H         -3.51723       11.85732        2.18724
H         -4.26692       11.33297        3.69544
H         -6.44884       10.97527        2.49848
H         -5.69343       11.43928        0.97000
H         -6.93640       12.79885        4.22814
H         -7.03747       15.52756        4.12420
H         -5.87083       16.23128        1.76278
H         -5.12819       13.89022        0.56546
