70

C          1.16772        2.51908        1.81846
C          2.63868        2.18891        1.55463
C          3.19659        2.86305        0.29642
C          4.66416        2.52648        0.01615
C          5.22203        3.20366       -1.23971
C          6.68043        2.83939       -1.53287
C          7.25031        3.52327       -2.77994
C          8.69945        3.12370       -3.07508
C          9.28995        3.80250       -4.31515
C         10.72123        3.33607       -4.59947
C         11.39358        4.03302       -5.80444
N         10.56251        3.94878       -7.00491
C         10.53178        2.62974       -7.60682
C         11.92150        2.02695       -7.83814
N         12.73473        2.07777       -6.55763
C         12.85544        3.53871       -6.04231
C         13.74405        3.66870       -4.79645
C         15.22396        4.01095       -5.02302
C         15.95228        4.28752       -3.70521
C         17.45381        4.53864       -3.88100
C         18.13035        5.03848       -2.59851
N         17.59308        6.35086       -2.21069
C         14.01212        1.26155       -6.64240
C         14.82651        1.46254       -7.90884
F         15.13969        2.81116       -8.09525
H          0.80017        2.02488        2.72811
H          0.52917        2.19412        0.98341
H          1.01736        3.60161        1.94546
H          2.76132        1.09606        1.46507
H          3.24609        2.48888        2.42553
H          3.08316        3.95775        0.38924
H          2.58315        2.57109       -0.57455
H          4.77468        1.43171       -0.08020
H          5.27801        2.81425        0.88807
H          5.13206        4.29915       -1.13502
H          4.59703        2.93236       -2.10882
H          6.76493        1.74401       -1.64767
H          7.30424        3.09849       -0.65920
H          7.18903        4.61873       -2.65884
H          6.61963        3.28013       -3.65299
H          8.75119        2.02672       -3.20101
H          9.32723        3.35435       -2.19633
H          9.28945        4.89757       -4.17983
H          8.65528        3.60965       -5.19319
H         10.69657        2.23430       -4.72816
H         11.34061        3.50507       -3.70647
H         11.48810        5.10233       -5.55817
H         10.79970        4.67194       -7.68224
H         10.01207        2.67777       -8.57300
H          9.93659        1.94947       -6.97311
H         12.48355        2.59809       -8.58811
H         11.86258        0.97415       -8.15106
H         12.16481        1.61395       -5.83240
H         13.29460        4.09111       -6.88496
H         13.64543        2.77678       -4.15219
H         13.30764        4.48334       -4.19609
H         15.28845        4.89741       -5.67615
H         15.74631        3.21108       -5.57103
H         15.80735        3.43553       -3.01667
H         15.50779        5.16488       -3.20822
H         17.61321        5.28524       -4.67974
H         17.95884        3.61833       -4.21911
H         19.22723        5.02847       -2.74468
H         17.91817        4.33558       -1.77642
H         17.97562        7.08332       -2.81148
H         17.87082        6.58832       -1.25884
H         13.71440        0.20359       -6.59114
H         14.59903        1.49643       -5.74920
H         14.30492        1.11191       -8.81100
H         15.76414        0.89518       -7.80648
