75

C          1.98491       -0.35496        0.59541
C          3.26874       -0.46730       -0.23146
C          4.02994        0.86270       -0.30499
C          5.31142        0.77175       -1.11529
O          5.92875        2.07907       -1.10381
C          7.14318        2.17290       -1.81487
C          7.60931        3.57680       -1.57756
N          7.00107        4.34295       -0.60378
C          7.58431        5.55552       -0.60005
N          7.27375        6.62078        0.16204
C          6.39717        6.66429        1.31469
C          4.93961        7.23025        1.03181
C          3.92076        6.39089        0.15744
C          3.32497        4.99829        0.63068
C          2.56249        4.81590        2.00380
C          1.24338        5.62345        2.32761
C         -0.04782        5.48156        1.42281
C         -0.67371        4.05194        1.20767
F         -0.81455        3.40651        2.37599
F         -1.87700        4.19902        0.63684
F          0.09994        3.31043        0.38816
F         -0.98825        6.24519        2.02801
F          0.22051        6.00925        0.19977
F          0.90981        5.26199        3.58860
F          1.56284        6.94542        2.32689
F          2.27625        3.49153        2.08272
F          3.44931        5.11441        2.98984
F          2.52953        4.58638       -0.37667
F          4.37842        4.11254        0.70767
F          2.88927        7.21077       -0.11526
F          4.57020        6.10933       -1.02083
F          4.37572        7.52857        2.21654
F          5.14100        8.38686        0.33783
F          6.33661        5.44303        1.89414
F          6.96206        7.53588        2.17902
N          8.55116        5.47764       -1.55831
N          8.55290        4.24238       -2.18079
C          9.53711        6.47732       -2.00351
C          9.16538        7.22486       -3.35356
C          7.88340        8.15766       -3.39478
C          7.76838        9.51926       -2.58697
C          8.84033       10.67585       -2.71058
C          9.16349       11.35538       -4.10111
C          8.04462       12.10663       -4.93144
C          7.26675       13.29978       -4.26069
F          8.11657       14.17180       -3.69630
F          6.55715       13.92620       -5.20990
F          6.41606       12.84357       -3.32051
F          8.68588       12.60237       -6.01637
F          7.12850       11.19264       -5.34670
F         10.15347       12.24025       -3.83868
F          9.65552       10.38847       -4.92229
F          8.43056       11.64201       -1.85299
F         10.01568       10.17119       -2.24747
F          6.55027       10.00990       -2.88527
F          7.76013        9.19614       -1.24510
F          7.66022        8.43100       -4.69239
F          6.84241        7.38736       -2.93019
F         10.25608        7.92080       -3.72568
F          8.93062        6.25058       -4.26727
F          9.69716        7.36949       -0.99462
F         10.68969        5.83778       -2.21063
H          1.45116       -1.31316        0.63241
H          1.29885        0.39204        0.16954
H          2.20157       -0.05490        1.63121
H          3.02380       -0.80845       -1.25060
H          3.92142       -1.24225        0.20281
H          4.27848        1.20333        0.71359
H          3.38432        1.63705       -0.75009
H          5.10831        0.47747       -2.16079
H          6.01377        0.03698       -0.68060
H          7.02623        2.00161       -2.90143
H          7.90590        1.46039       -1.44165
H          6.18808        4.02332       -0.07064
H          7.71079        7.51232       -0.06728
