62

C          0.80718       -0.84704        0.00356
C          2.33781       -0.81246        0.01993
C          2.93506       -2.04401        0.68049
O          4.35778       -1.85563        0.79804
C          5.03595       -2.97130        1.31920
C          6.51668       -2.59181        1.48051
C          7.43839       -3.81324        1.66215
C          7.34667       -4.16843        3.14674
N          6.97953       -2.83642        3.84416
C          6.85264       -1.74062        2.71847
C          5.91140       -0.65547        3.21284
C          5.83825        0.56571        2.29346
O          5.09110        1.52921        3.02057
C          4.54059        2.56763        2.24198
C          3.39941        3.22677        3.02141
C          2.02848        2.46067        3.12494
C          1.89337        1.08857        3.88433
C          2.23974        1.08180        5.40578
F          1.73748       -0.06900        5.93965
F          3.59116        1.06539        5.57314
F          0.58071        0.74237        3.76883
F          2.62551        0.12763        3.24267
F          1.14768        3.30560        3.73199
F          1.60138        2.23416        1.84630
F          3.79817        3.55108        4.28695
F          3.09997        4.39278        2.36707
C          7.80660       -2.47162        4.95558
N          7.38202       -2.24672        6.15211
N          8.51502       -1.95964        6.90160
C          9.53841       -2.02562        6.08194
O          9.14455       -2.36127        4.77741
S         11.18450       -1.70371        6.47166
C         12.08075       -2.37917        5.01375
C         13.57637       -2.21680        5.27732
H          0.40578        0.03990       -0.50224
H          0.39633       -0.86020        1.02323
H          0.42611       -1.73151       -0.52704
H          2.68155        0.07707        0.56777
H          2.73262       -0.73051       -1.00432
H          2.73212       -2.95284        0.08256
H          2.50522       -2.19953        1.68872
H          4.95934       -3.83942        0.63469
H          4.57734       -3.29508        2.28275
H          6.79949       -2.02648        0.58063
H          8.47190       -3.55150        1.39823
H          7.14323       -4.66294        1.03491
H          8.27983       -4.53319        3.58567
H          6.54120       -4.87354        3.38008
H          6.03999       -2.92813        4.26306
H          7.87779       -1.35213        2.61615
H          6.24716       -0.30061        4.20046
H          4.89271       -1.05226        3.33993
H          5.33459        0.30586        1.34811
H          6.85154        0.95143        2.06089
H          4.14167        2.20045        1.28002
H          5.27522        3.36698        2.03395
H          1.80905        1.94690        5.93247
H         11.76771       -1.82240        4.12150
H         11.80370       -3.43561        4.90265
H         13.85573       -1.16180        5.39727
H         14.13682       -2.61799        4.42282
H         13.89183       -2.76531        6.17447
