49

C          1.91775       -1.50082       -1.44515
C          3.03998       -1.30357       -0.42634
C          2.69310       -0.41441        0.78669
C          1.63566       -1.08821        1.70730
C          0.46285       -0.17880        2.19153
N         -0.19129       -0.94946        3.30728
C          0.17124       -0.59992        4.49105
C          1.10481        0.54441        4.45587
C          0.97985        1.07777        3.00213
C          0.05293        2.31066        2.92505
C          0.48260        3.54829        3.72790
C          1.72718        4.28988        3.27356
Br         3.38739        3.40169        3.89790
Br        -1.00338        4.86217        3.55667
C         -0.55064        0.11872        1.06491
C         -1.38239       -1.04664        0.46689
C         -2.64761       -1.37628        1.28080
C         -1.79740       -0.67873       -0.96700
C          3.97523       -0.08310        1.56619
H          2.26700       -2.09788       -2.29731
H          1.56509       -0.53760       -1.84321
H          1.05090       -2.02963       -1.02368
H          3.90578       -0.85012       -0.93342
H          3.39176       -2.28293       -0.05859
H          2.27285        0.52817        0.39095
H          2.15316       -1.49865        2.58878
H          1.18981       -1.95410        1.19611
H         -0.81553       -1.73701        3.11517
H         -0.18183       -1.13872        5.37338
H          2.12058        0.17688        4.69498
H          0.87884        1.27772        5.24208
H          1.96734        1.35225        2.62332
H         -0.95901        2.04153        3.26632
H         -0.04636        2.62050        1.87532
H          0.52524        3.36341        4.80809
H          1.78206        5.28658        3.71638
H          1.80650        4.35822        2.18313
H          0.04104        0.57552        0.25736
H         -1.25781        0.89142        1.39583
H         -0.75715       -1.95421        0.40569
H         -3.28273       -0.48537        1.39679
H         -2.46708       -1.77068        2.29440
H         -3.24242       -2.14208        0.76629
H         -2.41393        0.23303       -0.97458
H         -2.39174       -1.48237       -1.42157
H         -0.92501       -0.50044       -1.60796
H          4.46890       -1.00688        1.90420
H          3.79649        0.54043        2.45327
H          4.68800        0.46025        0.93171
