38

C          6.50373       -5.79777       -5.24847
O          6.05406       -5.10662       -4.08852
C          6.45883       -3.75227       -4.06851
C          5.90196       -3.08885       -2.82814
O          6.61753       -3.55734       -1.67449
C          6.04551       -3.13738       -0.45761
C          6.78826       -3.87397        0.67527
C          8.26198       -3.83414        0.50436
N          9.03226       -4.86852        0.13228
N         10.29158       -4.45661        0.04904
N         10.33922       -3.18791        0.35701
N          9.07968       -2.76131        0.66375
Br         8.66517       -0.99792        1.11540
C         11.58660       -2.40984        0.44412
C         12.06815       -2.23054        1.88507
O         12.18857       -3.50601        2.45302
C         12.77331       -3.48798        3.77482
C         12.84184       -4.91021        4.28888
H          6.12402       -6.82287       -5.17483
H          7.60736       -5.82237       -5.30239
H          6.11361       -5.33195       -6.17141
H          6.07617       -3.21035       -4.95697
H          7.56495       -3.66767       -4.07940
H          4.83025       -3.33662       -2.72633
H          6.00314       -1.99067       -2.91512
H          4.97313       -3.39921       -0.39386
H          6.12416       -2.03859       -0.33144
H          6.51766       -4.93769        0.66848
H          6.50271       -3.44955        1.64971
H         11.43105       -1.44788       -0.06163
H         12.29876       -3.01506       -0.12975
H         11.37619       -1.58498        2.46256
H         13.03797       -1.69642        1.82582
H         12.15394       -2.85164        4.43409
H         13.77916       -3.03429        3.71377
H         11.84091       -5.35617        4.35532
H         13.28772       -4.92019        5.29207
H         13.46092       -5.53571        3.63300
