88

C          0.76766       -0.35549       -0.19996
C          2.28777       -0.32076       -0.37869
C          2.90200        1.05161       -0.08154
C          4.42324        1.10309       -0.25568
C          5.02245        2.48349        0.03109
C          6.54222        2.55549       -0.14971
C          7.11785        3.94632        0.13421
C          8.63421        4.05175       -0.05652
C          9.17574        5.45571        0.22951
C         10.69076        5.59814        0.05333
C         11.19306        7.01288        0.35773
C         12.70668        7.19179        0.20491
C         13.17511        8.60571        0.56340
C         14.68639        8.81536        0.42502
C         15.12520       10.21251        0.87320
C         16.64475       10.41129        0.75804
C         17.10497       11.72410        1.28974
N         16.38710       12.82786        1.34883
N         17.18405       13.76137        1.93385
C         18.36357       13.24926        2.25221
N         18.35895       11.95983        1.84713
C         19.45224       11.03136        1.99196
C         19.90320       10.68828        3.26553
C         20.96772        9.78307        3.34392
N         21.55517        9.23479        2.27234
C         21.09851        9.58098        1.06139
C         20.04737       10.48102        0.85792
C         16.64917       15.13802        2.20981
C         16.01383       15.71496        0.92419
C         16.92938       16.20249       -0.21806
C         17.76159       15.08837       -0.87446
C         16.06021       16.90917       -1.26978
C         15.53413       14.93788        3.26239
O         16.09032       14.24227        4.37421
C         17.77831       16.00442        2.77237
H          0.35548       -1.34756       -0.43015
H          0.27129        0.37172       -0.85988
H          0.48189       -0.10916        0.83365
H          2.54498       -0.61695       -1.40994
H          2.75348       -1.07676        0.27633
H          2.64280        1.35013        0.94996
H          2.43497        1.80750       -0.73795
H          4.68357        0.79883       -1.28497
H          4.89320        0.35498        0.40701
H          4.76447        2.78487        1.06193
H          4.54409        3.23019       -0.62738
H          6.80265        2.25475       -1.17993
H          7.02648        1.81546        0.51166
H          6.86174        4.24047        1.16760
H          6.61922        4.68448       -0.51870
H          8.89537        3.76065       -1.08920
H          9.13967        3.32169        0.59991
H          8.90411        5.74446        1.26049
H          8.66528        6.18136       -0.42819
H         10.96984        5.32171       -0.97861
H         11.20718        4.87611        0.71003
H         10.90031        7.28483        1.38745
H         10.67451        7.73189       -0.30072
H         13.00446        6.95492       -0.83137
H         13.22968        6.46041        0.84574
H         12.87342        8.83161        1.60139
H         12.64654        9.33870       -0.07050
H         14.99015        8.64715       -0.62269
H         15.21810        8.05456        1.02301
H         14.82237       10.37769        1.91992
H         14.60843       10.98114        0.27870
H         16.96154       10.32276       -0.29582
H         17.17990        9.61394        1.29831
H         19.19258       13.75346        2.73261
H         19.43771       11.09463        4.16392
H         21.35852        9.48133        4.31867
H         21.59861        9.12223        0.20486
H         19.71796       10.74713       -0.14636
H         15.40529       16.56958        1.26001
H         15.30323       14.97107        0.53113
H         17.62584       16.95569        0.18812
H         17.11952       14.26392       -1.22001
H         18.52353       14.66928       -0.20205
H         18.29634       15.47994       -1.74998
H         15.33767       16.21211       -1.72108
H         16.67957       17.31622       -2.07981
H         15.49273       17.74176       -0.83135
H         14.70615       14.37043        2.80462
H         15.16431       15.93739        3.54643
H         15.42086       14.18029        5.07213
H         18.63952       16.06184        2.09435
H         18.10408       15.65251        3.75927
H         17.39805       17.02558        2.89794
