71

C          0.96097        0.78866       -0.59941
C          2.48576        0.70191       -0.50039
C          3.08229       -0.40346       -1.37721
C          4.60841       -0.50803       -1.29416
C          5.18599       -1.62113       -2.17375
C          6.71230       -1.74093       -2.11124
C          7.26055       -2.86345       -2.99796
C          8.78599       -3.00384       -2.96493
C          9.29930       -4.13554       -3.86161
C         10.82304       -4.29775       -3.85351
C         11.30654       -5.43839       -4.75601
C         12.82932       -5.61735       -4.76226
C         13.28299       -6.78341       -5.64979
C         14.80823       -6.92673       -5.82254
P         15.73673       -7.15866       -4.28115
C         15.16122       -8.60274       -3.32087
C         15.65193       -8.64967       -1.86106
C         14.93442       -7.64685       -0.97023
Br        15.74512       -7.50900        0.79471
Br        15.35101      -10.48386       -1.21181
C         17.53122       -7.25610       -4.60601
O         17.83220       -6.03633       -5.25777
C         19.23227       -5.93787       -5.63935
O         19.64985       -7.00721       -6.41184
C         19.14623       -7.02943       -7.76655
C         18.92551       -8.46439       -8.18589
O         17.79807       -8.99212       -7.46033
H          0.55857        1.58718        0.03882
H          0.48813       -0.15532       -0.28973
H          0.64075        0.99428       -1.63174
H          2.77878        0.53028        0.54912
H          2.93034        1.67053       -0.78476
H          2.78608       -0.23222       -2.42732
H          2.63507       -1.37234       -1.09243
H          4.90661       -0.67834       -0.24468
H          5.05725        0.45828       -1.58403
H          4.87934       -1.45112       -3.22085
H          4.73468       -2.58533       -1.88039
H          7.02446       -1.91247       -1.06609
H          7.16774       -0.78077       -2.41082
H          6.93631       -2.69228       -4.03947
H          6.80251       -3.82095       -2.69339
H          9.11647       -3.17911       -1.92604
H          9.24904       -2.05088       -3.27529
H          8.96034       -3.95901       -4.89722
H          8.83217       -5.08574       -3.54857
H         11.16644       -4.47649       -2.81902
H         11.29469       -3.35222       -4.17281
H         10.96340       -5.25851       -5.78904
H         10.83050       -6.38217       -4.43785
H         13.16729       -5.77026       -3.72004
H         13.30909       -4.68403       -5.10443
H         12.87089       -6.65125       -6.66213
H         12.85599       -7.72956       -5.28025
H         15.25235       -6.02558       -6.27518
H         15.07705       -7.77589       -6.47168
H         15.56322       -6.00014       -3.49255
H         15.51108       -9.48979       -3.87041
H         14.06112       -8.61285       -3.36168
H         16.73952       -8.51936       -1.79572
H         13.88319       -7.91969       -0.82286
H         14.99176       -6.63356       -1.39084
H         17.73058       -8.14003       -5.24181
H         18.06452       -7.37316       -3.64153
H         19.85848       -5.94376       -4.73290
H         19.28379       -4.96551       -6.15426
H         19.88838       -6.55933       -8.43201
H         18.19940       -6.47047       -7.83085
H         19.83374       -9.05305       -7.97468
H         18.73667       -8.48592       -9.27274
H         17.70471       -9.92591       -7.70441
