101

C          0.52493       -0.27401        0.04235
C          2.05523       -0.22283        0.04503
C          2.62008        1.13508       -0.38700
C          4.15130        1.19286       -0.39244
C          4.71579        2.54905       -0.82818
C          6.24720        2.60480       -0.83868
C          6.81116        3.96072       -1.27607
C          8.34252        4.01582       -1.29002
C          8.90646        5.37092       -1.72995
C         10.43776        5.42422       -1.74512
C         11.00431        6.77855       -2.18418
C         12.53595        6.82628       -2.19632
C         13.10821        8.17832       -2.63421
C         14.63997        8.21875       -2.65031
C         15.21384        9.56963       -3.09017
C         16.74581        9.60413       -3.11227
C         17.31756       10.95884       -3.54449
C         18.85009       10.99361       -3.55961
C         19.40674       12.36238       -3.96237
C         20.95666       12.38587       -3.98554
C         21.48946       13.73619       -4.34820
N         21.74365       13.95450       -5.65143
C         22.16801       15.14186       -6.21117
C         22.35713       15.16430       -7.69832
C         21.03968       15.01513       -8.49415
C         21.27026       15.04223      -10.00621
C         22.35878       16.19893       -5.35837
C         22.13772       16.07865       -3.95893
C         21.68324       14.80973       -3.44301
C         21.44208       14.65548       -2.05234
C         21.65507       15.71896       -1.20433
C         22.10934       16.95688       -1.70895
C         22.35489       17.16827       -3.05895
C         22.78991       18.52696       -3.54389
C         21.60742       19.39570       -4.02410
C         22.05824       20.74964       -4.57526
C         20.88817       21.64180       -4.99779
N         21.38462       22.87306       -5.61784
H          0.15254       -1.25931        0.35529
H          0.12018       -0.06923       -0.96019
H          0.09907        0.47446        0.72747
H          2.45124       -1.00805       -0.62128
H          2.43062       -0.46717        1.05335
H          2.22697        1.92180        0.28139
H          2.24183        1.38197       -1.39502
H          4.54281        0.40429       -1.05929
H          4.52895        0.94771        0.61604
H          4.32695        3.33757       -0.15977
H          4.33558        2.79520       -1.83544
H          6.63576        1.81595       -1.50687
H          6.62798        2.35925        0.16850
H          6.42419        4.74942       -0.60679
H          6.42863        4.20686       -2.28245
H          8.72927        3.22615       -1.95830
H          8.72541        3.77107       -0.28346
H          8.52089        6.16073       -1.06117
H          8.52305        5.61606       -2.73622
H         10.82320        4.63446       -2.41401
H         10.82087        5.17845       -0.73892
H         10.61960        7.56929       -1.51609
H         10.62364        7.02441       -3.19129
H         12.91936        6.03517       -2.86470
H         12.91601        6.57876       -1.18944
H         12.72928        8.96975       -1.96366
H         12.72641        8.42797       -3.63991
H         15.01841        7.42659       -3.32009
H         15.02237        7.97044       -1.64462
H         14.84105       10.36158       -2.41698
H         14.82850        9.82105       -4.09395
H         17.11985        8.81640       -3.78935
H         17.13164        9.34914       -2.10981
H         16.94177       11.74618       -2.86807
H         16.93609       11.21411       -4.54852
H         19.23014       10.22192       -4.25116
H         19.23469       10.72327       -2.56109
H         19.04273       13.13520       -3.26690
H         19.02799       12.64437       -4.95909
H         21.32476       11.64220       -4.71071
H         21.35041       12.07824       -3.00743
H         21.60268       13.16659       -6.28523
H         23.05794       14.36229       -7.99036
H         22.84698       16.11058       -7.96656
H         20.35217       15.82234       -8.19722
H         20.53816       14.07127       -8.21809
H         21.72573       15.99041      -10.32460
H         20.32169       14.93138      -10.54669
H         21.93481       14.22733      -10.32736
H         22.69502       17.14288       -5.78226
H         21.09491       13.70256       -1.65681
H         21.47839       15.60754       -0.13459
H         22.27672       17.77928       -1.01076
H         23.53512       18.43476       -4.34914
H         23.30428       19.04529       -2.72135
H         20.91046       19.53864       -3.18192
H         21.03601       18.85263       -4.79657
H         22.72132       20.60927       -5.44452
H         22.65956       21.27537       -3.81275
H         20.22540       21.80646       -4.12282
H         20.28232       21.11200       -5.75125
H         21.84734       23.46470       -4.92565
H         20.61409       23.42329       -5.99700
