52

C          0.43521        0.53995        4.20044
C          1.90671        0.59276        4.55331
O          2.56946        1.46861        3.61266
C          3.95129        1.64101        3.90147
C          4.57860        2.56722        2.88795
C          5.79371        2.24371        2.33913
N          6.43704        3.10914        1.51330
C          5.91004        4.32294        1.20103
C          4.68460        4.72664        1.67698
C          3.96985        3.81996        2.53163
N          2.76355        4.12165        3.03167
C          4.14516        6.07916        1.26873
C          3.45754        6.09534       -0.11829
C          2.18636        5.23792       -0.27028
C          1.01429        5.78695        0.56651
C         -0.13652        4.78738        0.80071
C         -1.13879        5.27817        1.81263
C         -2.21731        6.04712        1.57245
C         -2.60687        6.53726        0.20283
C         -3.12468        6.48318        2.69172
C          1.80871        5.12456       -1.75473
H         -0.08845       -0.13346        4.89154
H          0.28778        0.16464        3.17963
H         -0.03007        1.53212        4.28071
H          2.37177       -0.40732        4.49161
H          2.06320        0.97769        5.57768
H          4.47740        0.66883        3.89794
H          4.07724        2.07655        4.91551
H          6.30093        1.30285        2.54642
H          7.34076        2.84780        1.12772
H          6.51188        4.95095        0.54561
H          2.26736        4.95030        2.72108
H          2.22790        3.35463        3.44718
H          4.98503        6.78876        1.24498
H          3.46930        6.46939        2.04439
H          4.19703        5.77217       -0.86957
H          3.22028        7.14439       -0.35997
H          2.41382        4.21583        0.08872
H          0.61376        6.69374        0.08335
H          1.36608        6.14935        1.55117
H          0.28868        3.82855        1.14497
H         -0.62816        4.56527       -0.15799
H         -0.94483        4.99623        2.85428
H         -1.96084        6.15735       -0.59729
H         -2.57525        7.63807        0.16657
H         -3.64408        6.25226       -0.03228
H         -2.79695        6.08956        3.66261
H         -4.15794        6.14420        2.51432
H         -3.16784        7.58223        2.76228
H          1.59315        6.11593       -2.18144
H          0.91865        4.49912       -1.90123
H          2.62399        4.67827       -2.34104
