87

C         11.21305       -3.04452       -4.09680
C         10.72512       -1.65247       -3.68782
C         11.21878       -1.21650       -2.30327
C         10.72669        0.17318       -1.88559
C         11.20523        0.60464       -0.49507
C         10.69677        1.98709       -0.07209
C         11.16182        2.40964        1.32543
C         10.64076        3.78203        1.76639
C         11.10911        4.17232        3.17112
C         10.64327        5.56084        3.62587
C         11.07597        5.91926        5.03943
O         12.51191        5.86925        5.09782
C         13.06367        6.16775        6.36543
C         14.58219        6.07113        6.24278
C         14.99936        7.15716        5.21724
O         16.38024        7.22834        4.91772
C         16.82869        5.97615        4.43792
C         16.65170        4.89987        5.51050
N         15.12964        4.71254        5.72582
C         14.71415        3.27405        6.32550
C         15.33179        2.19807        5.35864
C         15.06365        0.75021        5.81792
C         14.88326        2.35401        3.89434
C         15.28279        3.09216        7.73798
O         14.87551        4.17866        8.56832
C         13.18862        3.14486        6.35794
C         17.45010        5.25744        6.77873
C         18.83558        4.59620        6.77113
C         19.72217        5.06472        7.92879
C         21.10876        4.41128        7.93977
C         22.00425        4.91664        9.07339
H         10.84077       -3.32588       -5.09124
H         10.87250       -3.81242       -3.38621
H         12.31195       -3.09003       -4.12922
H          9.62235       -1.62976       -3.70156
H         11.05048       -0.91212       -4.43807
H         12.32327       -1.23459       -2.28801
H         10.89554       -1.95917       -1.55215
H          9.62299        0.19082       -1.91065
H         11.05601        0.91721       -2.63205
H         12.30983        0.59714       -0.47048
H         10.88174       -0.14488        0.24903
H          9.59349        1.99461       -0.10435
H         11.02464        2.74027       -0.80967
H         12.26723        2.41425        1.35415
H         10.84326        1.64737        2.05913
H          9.53802        3.78571        1.73194
H         10.96865        4.54946        1.04404
H         12.21141        4.13715        3.19808
H         10.75659        3.41449        3.89436
H          9.54364        5.62139        3.58952
H         11.01823        6.32987        2.93098
H         10.65692        5.20642        5.77672
H         10.73353        6.93246        5.31682
H         12.66435        5.52189        7.16090
H         12.83843        7.21147        6.66417
H         15.04071        6.22993        7.22341
H         14.71835        8.13098        5.63900
H         14.41656        7.00204        4.29025
H         17.89572        6.07873        4.20078
H         16.29599        5.69964        3.50378
H         17.00989        3.95231        5.09690
H         14.72541        4.64413        4.77795
H         16.42605        2.30580        5.40151
H         14.00124        0.47819        5.76323
H         15.42141        0.54644        6.83413
H         15.60293        0.06855        5.14790
H         13.79902        2.22098        3.77855
H         15.37036        1.58576        3.28058
H         15.15432        3.31770        3.43467
H         16.38177        2.99280        7.71186
H         14.87709        2.14268        8.11868
H         14.96631        3.91552        9.49671
H         12.70823        3.55415        5.46533
H         12.76505        3.62065        7.24606
H         12.93664        2.08021        6.41500
H         16.90869        4.98362        7.69187
H         17.56541        6.35008        6.82021
H         19.34817        4.81226        5.81757
H         18.72317        3.49755        6.80930
H         19.21272        4.86218        8.88743
H         19.83505        6.16133        7.87435
H         21.60267        4.59532        6.97093
H         20.99456        3.31679        8.01751
H         22.17700        5.99986        8.99377
H         22.98461        4.42274        9.05784
H         21.55249        4.72525       10.05785
