71

C          1.72458        1.68578        0.15119
C          3.17516        1.19982        0.10604
C          3.55153        0.53952       -1.22526
C          5.00291        0.05035       -1.27595
C          5.38855       -0.56406       -2.62512
C          6.83266       -1.07720       -2.67147
C          7.23153       -1.58437       -4.06287
C          8.64182       -2.16262       -4.08423
N          9.02673       -2.56097       -5.51452
C         10.04104       -1.67328       -6.24687
C         10.04183       -2.10730       -7.71959
O         10.26598       -3.49276       -7.89762
C          9.26173       -4.25280       -7.24227
C          9.30023       -4.07125       -5.72092
C         10.52121       -4.74977       -4.94878
C         11.39013       -3.80345       -4.02706
C         12.91959       -3.69314       -4.23682
C         13.33458       -2.85223       -5.45509
C         13.55071       -3.10630       -2.96449
C          9.86518       -5.81233       -4.03232
O          8.97752       -5.17778       -3.10637
C         11.39313       -5.58068       -5.91938
C          9.71536       -0.18557       -6.09658
C         10.85082        0.69987       -6.63349
C         10.62266        2.16837       -6.30731
F          9.46200        2.62525       -6.84937
F         10.54512        2.37455       -4.96257
F         11.62923        2.93275       -6.78155
H          1.49192        2.16388        1.11197
H          1.01851        0.85313        0.01520
H          1.52430        2.42153       -0.64192
H          3.35144        0.48552        0.92821
H          3.85508        2.04828        0.29274
H          3.37896        1.25638       -2.04761
H          2.87174       -0.30929       -1.41799
H          5.16872       -0.68981       -0.47369
H          5.68015        0.89398       -1.05477
H          5.24398        0.18841       -3.42020
H          4.70026       -1.39356       -2.86330
H          6.96431       -1.88450       -1.93173
H          7.52156       -0.26943       -2.37118
H          7.14656       -0.75325       -4.78392
H          6.51918       -2.36336       -4.38896
H          8.70865       -3.07048       -3.47460
H          9.38581       -1.44664       -3.71797
H          8.14887       -2.42546       -6.04179
H         11.01336       -1.89929       -5.79793
H         10.85109       -1.59204       -8.25138
H          9.07992       -1.80955       -8.19069
H          9.41431       -5.30142       -7.51540
H          8.25934       -3.95883       -7.62118
H          8.38105       -4.52023       -5.31554
H         11.22714       -4.14692       -2.99566
H         10.99906       -2.77931       -4.01820
H         13.33525       -4.70478       -4.36415
H         13.09761       -1.78740       -5.29109
H         12.85705       -3.17194       -6.39125
H         14.42044       -2.90746       -5.61097
H         13.15936       -2.09855       -2.75194
H         14.64024       -3.01811       -3.07203
H         13.35042       -3.73506       -2.08596
H         10.66735       -6.35214       -3.50153
H          9.31429       -6.54416       -4.65215
H          8.65047       -5.83931       -2.47816
H         11.84489       -4.98215       -6.71536
H         10.81092       -6.38407       -6.38977
H         12.19952       -6.07192       -5.36351
H          9.56638        0.06589       -5.03848
H          8.77598        0.05592       -6.61937
H         10.95426        0.63307       -7.72486
H         11.81663        0.41806       -6.18889
