77

C          6.16461        3.36970       -1.87879
C          6.92423        2.29831       -1.63330
C          6.70112        0.94077       -2.24208
C          6.37738       -0.19188       -1.23711
C          5.07691        0.09260       -0.44831
C          3.81046        0.13438       -1.32063
C          2.51011       -0.06949       -0.53015
C          2.16229        1.09380        0.40530
S          0.79735        0.61624        1.48165
O         -0.40189        0.42480        0.69369
O          1.28834       -0.40472        2.37568
O          0.61112        1.96873        2.36243
C          7.58080       -0.36528       -0.28970
N          7.48304       -1.67671        0.46443
C          7.32986       -2.85916       -0.47297
C          6.10933       -2.61520       -1.35794
O          6.27711       -1.37641       -2.05964
C          5.93974       -3.73592       -2.38018
C          5.43279       -5.03945       -1.73887
C          5.75585       -6.26307       -2.60113
S          5.56429       -7.83874       -1.72606
C          7.11674       -7.96492       -0.83245
S          8.26267       -6.73190       -0.80803
N          7.27244       -9.14571       -0.19809
C          6.27851      -10.23123       -0.23266
C          5.30354      -10.20122        0.95091
C          4.36349      -11.41123        0.95507
C          3.40490      -11.41180        2.14721
C          8.50091       -9.44606        0.55666
C          9.57012      -10.11538       -0.31368
C         10.82310      -10.48445        0.48615
C         11.90400      -11.13260       -0.38160
H          6.38828        4.34052       -1.43709
H          5.30477        3.32037       -2.55096
H          7.79555        2.41680       -0.97890
H          7.59612        0.62231       -2.80284
H          5.87742        0.97800       -2.96824
H          5.21932        1.04818        0.07984
H          4.92314       -0.66789        0.34020
H          3.87475       -0.65758       -2.08117
H          3.77023        1.08674       -1.87089
H          2.58574       -0.99615        0.06159
H          1.67795       -0.21573       -1.23292
H          1.84431        1.98959       -0.14530
H          2.98156        1.36296        1.08638
H         -0.24721        2.36151        2.11102
H          7.64505        0.43875        0.45436
H          8.51598       -0.41508       -0.86293
H          6.67105       -1.64427        1.09833
H          8.31447       -1.80068        1.05598
H          7.25403       -3.77217        0.13196
H          8.24545       -2.90358       -1.07798
H          5.20275       -2.57275       -0.72075
H          6.90639       -3.90858       -2.87977
H          5.24479       -3.37688       -3.15295
H          4.35021       -4.97988       -1.55053
H          5.92502       -5.19814       -0.76887
H          6.79672       -6.22371       -2.95306
H          5.08639       -6.34941       -3.46969
H          6.84060      -11.17761       -0.23410
H          5.73396      -10.19150       -1.18765
H          4.71729       -9.26922        0.91501
H          5.87557      -10.17748        1.89322
H          4.96352      -12.33649        0.96435
H          3.78758      -11.43073        0.01505
H          3.95422      -11.42722        3.09984
H          2.74638      -12.29019        2.12852
H          2.76597      -10.51676        2.14575
H          8.21290      -10.10398        1.39090
H          8.88272       -8.50428        0.97249
H          9.83467       -9.42864       -1.13285
H          9.15154      -11.02329       -0.77991
H         10.54700      -11.16831        1.30635
H         11.22810       -9.57805        0.96602
H         11.53538      -12.05369       -0.85630
H         12.78862      -11.39605        0.21301
H         12.22945      -10.45365       -1.18291
