103

O         -0.30201        3.94775       -1.38050
C          0.76208        3.10172       -0.95153
C          1.95322        4.01107       -0.68316
O          3.00360        3.19789       -0.15908
C          4.21073        3.89900        0.05060
C          5.24247        2.87776        0.52239
C          6.60965        3.47837        0.91065
C          7.74156        2.43095        0.89253
C          7.62143        1.46595        2.07652
C          7.64778        2.18244        3.43341
N          6.46983        3.19397        3.42116
C          6.57554        4.18542        2.27240
C          6.16263        3.91718        4.71781
C          5.82904        3.01148        5.90466
O          7.06889        2.45973        6.32575
C          7.00314        1.33973        7.24015
C          8.27283        0.54892        7.07239
C          8.25338       -0.70660        6.44926
C          9.43726       -1.42700        6.26461
C         10.65369       -0.88833        6.69279
C         10.68237        0.36787        7.30853
C          9.49844        1.08035        7.50233
C          5.12211        3.81702        6.99895
C          8.96643        2.85747        3.81230
C         10.12760        1.86218        3.79347
O         11.24314        2.51440        4.36582
C         12.43530        1.74110        4.24398
C         13.56852        2.52836        4.88321
O         14.74481        1.77004        4.64062
C         15.95408        2.30773        5.02291
C         17.08770        1.56111        4.67356
C         18.35124        2.02077        5.01691
C         18.54248        3.22472        5.72375
C         17.39499        3.95532        6.04665
C         16.10860        3.51349        5.70934
C         19.95319        3.66958        6.12781
C         20.61287        2.66384        7.13178
C         19.95868        2.18504        8.46489
C         19.50978        3.33666        9.38447
C         18.76011        1.23983        8.23838
C         21.05886        1.38405        9.19596
C         20.85571        3.67848        4.86701
C         19.97626        5.11061        6.67655
H         -1.04007        3.39305       -1.67295
H          1.03425        2.35917       -1.72226
H          0.50440        2.55632       -0.02507
H          1.66857        4.79932        0.03948
H          2.27233        4.50561       -1.61905
H          4.06254        4.71006        0.79684
H          4.55550        4.38479       -0.88461
H          5.39015        2.14411       -0.28363
H          4.78611        2.30262        1.34895
H          6.85562        4.26338        0.17649
H          8.71828        2.93819        0.91839
H          7.70879        1.87248       -0.05248
H          8.43471        0.72898        2.06626
H          6.69364        0.87498        1.99811
H          7.38845        1.47550        4.23073
H          5.64224        2.61500        3.21435
H          7.48103        4.77757        2.45118
H          5.70933        4.85381        2.36172
H          5.30819        4.56826        4.49193
H          7.02632        4.54901        4.96001
H          5.15200        2.19366        5.56875
H          6.12365        0.71566        7.00072
H          6.89215        1.71130        8.27286
H          7.30153       -1.13364        6.12387
H          9.40883       -2.41120        5.79569
H         11.57863       -1.44994        6.55695
H         11.63024        0.78789        7.64697
H          9.52399        2.05628        7.99060
H          5.75233        4.65147        7.33596
H          4.90916        3.17910        7.86525
H          4.16305        4.21710        6.64210
H          8.89358        3.24578        4.83625
H          9.22024        3.69545        3.14727
H         10.36594        1.55087        2.75683
H          9.86909        0.94965        4.36590
H         12.66922        1.55598        3.17866
H         12.31786        0.76181        4.74218
H         13.38849        2.65693        5.96606
H         13.63673        3.52972        4.42256
H         16.95646        0.62322        4.13311
H         19.21122        1.40897        4.74191
H         17.48150        4.89739        6.58634
H         15.24853        4.12028        5.99022
H         21.59133        3.10428        7.39100
H         20.85076        1.74766        6.56450
H         18.63341        3.86258        8.98237
H         20.31218        4.07164        9.54270
H         19.22514        2.93985       10.37047
H         17.89079        1.75901        7.81727
H         18.45189        0.79467        9.19655
H         19.02107        0.41632        7.55749
H         21.92649        2.01814        9.43154
H         21.41512        0.54308        8.58221
H         20.67717        0.97060       10.14097
H         20.94919        2.68216        4.41505
H         21.86853        4.01973        5.12545
H         20.44938        4.35873        4.10536
H         19.35330        5.25617        7.56504
H         19.64445        5.82448        5.90863
H         21.00476        5.37952        6.95456
