84

S          2.03829        1.55457        0.29285
C          3.61699        2.38042        0.74283
C          4.07768        1.91579        2.10443
O          3.82959        2.47714        3.14949
O          4.77813        0.74198        2.00464
C          5.18385        0.10719        3.24696
C          4.48890       -1.24955        3.35833
C          2.94679       -1.20083        3.42819
C          2.38578       -0.29339        4.53867
C          2.66957       -0.86392        5.92778
C          2.10557       -2.26894        6.05114
N          2.59735       -3.17829        4.94053
C          2.33236       -2.61920        3.52711
C          2.83501       -3.60301        2.46414
C          2.55484       -3.13214        1.02992
C          2.99412       -4.12499       -0.06701
C          2.41093       -5.54479        0.13954
C          3.37823       -6.53602        0.81178
C          2.71253       -7.81892        1.23150
C          3.11698       -8.66370        2.19873
C          4.36005       -8.45284        3.02508
C          2.37266       -9.94294        2.47647
C          2.62753       -3.55446       -1.44328
C          2.16672       -4.58854        5.19846
C          3.43549       -5.35647        5.64315
O          4.49508       -4.72382        5.61753
C          3.33171       -6.74933        6.08433
C          4.47914       -7.36650        6.62555
C          4.41986       -8.68528        7.05964
C          3.22213       -9.40420        6.94998
C          2.08069       -8.80265        6.40803
C          2.13034       -7.47875        5.97955
C          6.70353       -0.03172        3.18586
O          7.08341       -0.73611        4.38664
C          8.42128       -0.97271        4.53648
O          9.25501       -0.65022        3.72021
C          8.70173       -1.66778        5.84999
S          8.73814       -0.47692        7.24229
H          2.59817        0.42932       -0.21006
H          3.39087        3.45064        0.79689
H          4.36545        2.19723       -0.03539
H          4.91344        0.77380        4.07716
H          4.92674       -1.74628        4.23885
H          4.79825       -1.84865        2.48861
H          2.58002       -0.79832        2.47154
H          1.29708       -0.19606        4.39524
H          2.79024        0.72190        4.44688
H          2.20693       -0.24569        6.70982
H          3.74995       -0.87021        6.14375
H          1.00725       -2.26702        5.98427
H          2.39801       -2.75127        6.99373
H          3.64417       -3.27667        5.05672
H          1.23494       -2.53010        3.46123
H          2.33759       -4.57445        2.59017
H          3.91178       -3.79074        2.60125
H          3.05304       -2.16806        0.84235
H          1.47144       -2.94351        0.92198
H          4.09589       -4.20383       -0.02114
H          2.11355       -5.96167       -0.83487
H          1.47373       -5.48235        0.72150
H          3.87509       -6.06505        1.67589
H          4.19764       -6.74843        0.10045
H          1.82499       -8.10159        0.65408
H          4.68323       -7.40395        3.06325
H          5.20026       -9.03376        2.61000
H          4.21586       -8.80941        4.05370
H          1.50710      -10.06680        1.81370
H          2.01961       -9.97766        3.52055
H          3.03087      -10.81726        2.34542
H          1.53573       -3.48216       -1.56458
H          3.00956       -4.19516       -2.24918
H          3.04771       -2.54857       -1.59127
H          1.73602       -5.03665        4.29659
H          1.40075       -4.59864        5.98314
H          5.40250       -6.79225        6.69718
H          5.30511       -9.16030        7.48240
H          3.17833      -10.43980        7.28909
H          1.15316       -9.36825        6.32234
H          1.23383       -7.02771        5.55229
H          7.18689        0.95485        3.15514
H          7.02168       -0.60122        2.29898
H          9.65278       -2.20503        5.77808
H          7.89644       -2.37044        6.09842
H          9.84396        0.18768        6.83005
