106

C          3.41515       -0.86328       -1.01577
C          4.34730       -0.08286       -0.08825
C          3.77922        1.26029        0.43133
C          3.41670        2.31434       -0.61161
N          2.04101        1.98620       -1.20711
C          1.55844        2.99081       -2.22792
C          1.61690        4.38686       -1.61005
O          2.94429        4.63637       -1.14638
C          3.36252        3.76354       -0.09426
C          4.73792        4.24005        0.38650
C          4.94411        4.19261        1.90719
O          6.30935        3.89399        2.12167
C          6.70627        3.93787        3.49416
C          8.12020        3.40849        3.60043
O          8.06572        1.98913        3.47768
C          9.25606        1.29301        3.45113
C          9.13853       -0.10377        3.46111
C         10.27308       -0.89947        3.41329
C         11.56898       -0.34934        3.37368
C         11.65968        1.04635        3.36661
C         10.52685        1.87198        3.40861
C         12.79512       -1.26912        3.37598
C         12.88446       -2.11258        4.69365
C         12.84577       -1.51189        6.13311
C         13.88552       -0.39980        6.36813
C         11.45212       -0.97505        6.52062
C         13.17593       -2.68851        7.07819
C         12.65184       -2.28953        2.21698
C         14.10448       -0.50027        3.10718
C          1.24435        5.48071       -2.60573
C          1.20285        6.86803       -1.95405
C          0.93872        8.00471       -2.95801
C          0.94785        9.35743       -2.28285
C          2.15331       10.04760       -2.08610
C          2.17671       11.27204       -1.41528
C          0.98942       11.82777       -0.93050
C         -0.21856       11.15276       -1.12468
C         -0.23698        9.92722       -1.79520
O          4.59094       -0.92116        1.02880
C          5.84640       -0.67309        1.70967
C          5.86454       -1.47699        2.97797
C          6.22795       -2.83065        2.96089
C          6.26073       -3.56742        4.14612
C          5.93300       -2.95593        5.36008
C          5.56753       -1.60723        5.38615
C          5.53191       -0.87438        4.19874
H          3.30623       -0.38403       -2.00510
H          2.42735       -1.02102       -0.55451
H          3.84037       -1.85565       -1.20933
H          5.29438        0.12423       -0.62765
H          4.54158        1.69723        1.08851
H          2.91323        1.04296        1.08157
H          4.10877        2.28955       -1.46898
H          1.36739        1.94093       -0.42789
H          2.07894        1.03569       -1.60657
H          0.54016        2.70453       -2.52285
H          2.22737        2.91614       -3.09543
H          0.91937        4.42309       -0.74341
H          2.62320        3.82415        0.73455
H          4.86866        5.26423        0.01489
H          5.53672        3.63835       -0.07381
H          4.30288        3.42064        2.38356
H          4.66559        5.15985        2.36861
H          6.02852        3.31894        4.11250
H          6.66727        4.97746        3.86968
H          8.55367        3.69516        4.57538
H          8.73491        3.85358        2.79881
H          8.15009       -0.55164        3.53416
H         10.13893       -1.98172        3.44285
H         12.63567        1.52927        3.34001
H         10.66206        2.95257        3.40957
H         13.81979       -2.69296        4.61002
H         12.07572       -2.86259        4.65552
H         13.62838        0.52145        5.82845
H         14.89457       -0.71080        6.06175
H         13.92746       -0.14646        7.43790
H         11.18173       -0.06927        5.96504
H         11.43437       -0.72570        7.59251
H         10.66812       -1.72570        6.34088
H         14.18319       -3.08667        6.88586
H         12.45900       -3.51405        6.95370
H         13.13588       -2.36662        8.12913
H         11.76416       -2.92573        2.33151
H         13.52992       -2.95058        2.17996
H         12.57471       -1.76936        1.25170
H         14.31801        0.27953        3.84532
H         14.08290       -0.02994        2.11341
H         14.95054       -1.20107        3.12252
H          0.26477        5.23785       -3.05008
H          1.97986        5.46741       -3.42736
H          2.15834        7.05754       -1.44344
H          0.42333        6.88746       -1.17415
H         -0.02987        7.84238       -3.45765
H          1.70880        7.97803       -3.74597
H          3.08422        9.62527       -2.47273
H          3.12235       11.79848       -1.27973
H          1.00418       12.78691       -0.41203
H         -1.15107       11.58543       -0.75980
H         -1.18671        9.40911       -1.94904
H          5.96352        0.39880        1.94816
H          6.67703       -0.96210        1.04098
H          6.49622       -3.30539        2.01503
H          6.54975       -4.61884        4.12538
H          5.97036       -3.52921        6.28706
H          5.32197       -1.12424        6.33253
H          5.27634        0.18744        4.21987
