76

C          0.78021        0.10339       -0.11234
C          2.31020        0.07127       -0.07545
C          2.94652       -0.07314       -1.46228
C          4.47795       -0.10748       -1.43994
C          5.10552       -0.25396       -2.82976
C          6.63690       -0.29896       -2.81562
C          7.25230       -0.44701       -4.21068
C          8.78334       -0.50745       -4.20958
C          9.37971       -0.64731       -5.61399
C         10.90992       -0.73218       -5.63203
C         11.47733       -0.83411       -7.05042
C         13.01847       -0.95926       -7.08524
C         13.55475       -0.99105       -8.49131
C         13.80996       -2.19515       -9.12471
C         14.25726       -2.25681      -10.46399
C         14.45048       -1.11236      -11.21249
C         14.20493        0.15276      -10.62988
C         13.76616        0.20940       -9.25321
C         13.57235        1.47644       -8.69658
N         13.79555        2.58325       -9.41916
C         14.20252        2.59743      -10.73406
C         14.39311        1.37186      -11.34570
C         14.88599        1.33436      -12.79246
O         16.08129        1.41755      -12.99411
C         13.84625        1.20084      -13.87081
C         14.43435        3.92585      -11.40132
C         14.23783        5.16948      -10.53323
O         14.52883        6.27176      -11.35317
C         14.40328        7.53155      -10.68155
C         14.83667        8.61814      -11.65599
O         14.66510        9.85285      -10.98917
C         15.05390       10.96652      -11.78642
H          0.35417        0.20550        0.89519
H          0.37196       -0.81856       -0.55288
H          0.41231        0.94705       -0.71528
H          2.64651       -0.76102        0.56592
H          2.68755        0.99104        0.40292
H          2.60932        0.75936       -2.10524
H          2.56829       -0.99379       -1.94121
H          4.81520       -0.94019       -0.79781
H          4.85754        0.81323       -0.96261
H          4.77143        0.58163       -3.47011
H          4.71971       -1.17144       -3.30827
H          6.97204       -1.13571       -2.17787
H          7.02623        0.61795       -2.33890
H          6.92133        0.39406       -4.84556
H          6.85396       -1.35905       -4.68906
H          9.11624       -1.35414       -3.58439
H          9.18694        0.40071       -3.72816
H          9.05436        0.20768       -6.23323
H          8.96191       -1.54631       -6.09955
H         11.23828       -1.60377       -5.04052
H         11.33603        0.15317       -5.12744
H         11.16205        0.04658       -7.63714
H         11.04286       -1.70498       -7.56771
H         13.31650       -1.88586       -6.57392
H         13.47335       -0.14115       -6.50382
H         13.66783       -3.12478       -8.57163
H         14.45855       -3.23117      -10.91057
H         14.81503       -1.18400      -12.23665
H         13.24694        1.63421       -7.67066
H         13.65133        3.48494       -8.96418
H         13.18178        0.34716      -13.66992
H         14.32762        1.09160      -14.84873
H         13.20224        2.09544      -13.87672
H         13.77194        4.01416      -12.27774
H         15.46086        3.94146      -11.79959
H         14.91837        5.15138       -9.65252
H         13.19287        5.23419      -10.15257
H         15.04414        7.55331       -9.78109
H         13.35696        7.69941      -10.36698
H         14.22043        8.56657      -12.57546
H         15.89306        8.46150      -11.95063
H         14.87862       11.86474      -11.18371
H         14.45467       11.02817      -12.71269
H         16.12377       10.91425      -12.05748
