60

C          3.63216       -7.09785       -1.76768
C          3.70647       -7.26524       -3.28736
C          3.48598       -5.96140       -4.06020
C          4.61154       -4.96443       -3.93648
O          5.74648       -5.21256       -3.54450
O          4.24264       -3.72901       -4.34869
C          5.28736       -2.72260       -4.38270
C          5.58028       -2.14098       -2.98552
C          7.02606       -2.28172       -2.44327
C          7.48892       -3.71572       -2.41753
N          8.47725       -3.91584       -3.22205
C          8.85187       -2.74166       -4.03169
C          8.16208       -1.58158       -3.28216
C          7.79122       -0.39307       -4.17811
C          7.43724        0.89414       -3.41263
C          8.59104        1.48821       -2.59539
C          8.15563        2.66687       -1.71748
C          9.22755        3.08452       -0.70550
C          8.69394        4.11045        0.29112
O          9.62629        4.35089        1.37286
C          9.59315        3.44143        2.39154
O          8.86248        2.46394        2.40105
C         10.55250        3.82574        3.45553
C         10.64178        3.11816        4.58707
N          7.02194       -1.71933       -1.04213
O          6.09798       -2.53887       -0.30978
O          8.32666       -2.02773       -0.50599
H          3.76495       -8.06286       -1.26187
H          2.65756       -6.69301       -1.45798
H          4.41445       -6.42117       -1.39526
H          2.93932       -7.98090       -3.61683
H          4.67685       -7.69590       -3.57439
H          2.55157       -5.46081       -3.76236
H          3.37703       -6.15986       -5.14044
H          4.87714       -1.95434       -5.04670
H          6.17158       -3.16281       -4.86220
H          4.90358       -2.61605       -2.26736
H          5.34698       -1.06838       -2.96822
H          7.12430       -4.49188       -1.74948
H          8.91573       -4.83080       -3.33968
H          8.48547       -2.88449       -5.06070
H          9.94498       -2.65150       -4.06617
H          8.88796       -1.23678       -2.53555
H          6.97147       -0.66496       -4.86187
H          8.65912       -0.18701       -4.82767
H          6.58815        0.70708       -2.73487
H          7.08414        1.64025       -4.14116
H          9.40735        1.79675       -3.26999
H          9.02048        0.71755       -1.93243
H          7.24503        2.37654       -1.16505
H          7.86883        3.52161       -2.35234
H         10.11569        3.48649       -1.21704
H          9.55055        2.19746       -0.13949
H          7.74073        3.76812        0.71904
H          8.55122        5.09403       -0.17500
H         11.16112        4.71202        3.27396
H         10.00957        2.24260        4.74150
H         11.33438        3.39733        5.38017
H          5.72910       -1.92158        0.34698
H          8.48625       -1.29393        0.11490
