62

C          8.01427       -1.38928        1.06639
C          6.61697       -2.00304        1.18789
C          6.57795       -3.46755        0.73765
C          5.22539       -4.17374        0.89880
N          4.12042       -3.57870        0.12036
C          4.01186       -3.93454       -1.19136
O          4.83099       -4.69790       -1.72453
C          2.85919       -3.30734       -1.98993
C          2.23945       -4.13862       -3.15940
C          1.43213       -5.34632       -2.63889
C          2.32369       -6.50081       -2.17650
N          3.32088       -6.79694       -3.19947
C          3.82385       -5.85246       -3.99088
N          4.88121       -6.15100       -4.79987
C          5.98945       -7.01481       -4.37046
C          5.81565       -8.49455       -4.65452
C          4.81651       -9.03219       -5.58562
O          4.60621       -9.10872       -4.14854
N          3.27311       -4.63965       -4.07515
C          1.32047       -3.16738       -3.97736
C          2.13422       -1.99838       -4.53716
O          3.24622       -2.10875       -5.04451
O          1.45737       -0.84861       -4.45093
C          2.08672        0.34690       -5.03189
C          2.94859        1.05771       -4.00603
C          0.57450       -3.81518       -5.16248
C          3.23414       -2.61819        0.78169
H          8.02076       -0.33840        1.38464
H          8.37649       -1.42529        0.02835
H          8.74222       -1.92939        1.68893
H          5.90864       -1.40901        0.58613
H          6.27173       -1.92737        2.23348
H          7.31230       -4.04839        1.32084
H          6.89391       -3.54528       -0.31432
H          4.90912       -4.17051        1.95195
H          5.32400       -5.21876        0.57779
H          3.26304       -2.36547       -2.39752
H          2.02759       -3.01967       -1.33366
H          0.78177       -5.71677       -3.44146
H          0.78271       -5.02417       -1.81408
H          1.71829       -7.40370       -2.02738
H          2.82885       -6.27570       -1.22504
H          3.67387       -7.75514       -3.34592
H          5.13567       -5.41321       -5.44699
H          6.17564       -6.86689       -3.29402
H          6.88911       -6.67077       -4.89953
H          6.71761       -9.08538       -4.45916
H          4.98990       -9.99775       -6.06498
H          4.14898       -8.34296       -6.10860
H          3.75151       -3.88944       -4.58641
H          0.58080       -2.74515       -3.28195
H          1.23266        0.95864       -5.34495
H          2.66421        0.03841       -5.91212
H          2.36675        1.31727       -3.11212
H          3.33484        1.98986       -4.44071
H          3.80921        0.44320       -3.71155
H          1.26879       -4.33857       -5.83248
H          0.05669       -3.04305       -5.74501
H         -0.18857       -4.52407       -4.82099
H          3.64447       -2.39422        1.77056
H          2.21820       -3.01932        0.92431
H          3.17169       -1.66890        0.23217
