63

C         -0.09880        5.93968        1.46813
C          1.39937        6.22699        1.34453
C          2.27962        5.06185        1.81069
C          3.78122        5.35724        1.73410
C          4.65411        4.17434        2.16648
C          6.15625        4.48122        2.14638
C          7.00939        3.27232        2.55025
C          8.53396        3.48823        2.46510
P          9.19234        4.81831        3.51230
C          8.63115        4.65362        5.24946
O          9.12510        5.78658        5.90932
C          8.70799        5.86101        7.30001
C          9.20553        7.16929        7.88486
C          8.82189        7.32400        9.36410
C          9.29620        8.65219        9.95905
C         11.00301        4.92865        3.43620
C         11.58878        4.99404        2.01117
C         11.12242        6.18368        1.16268
C         11.78840        6.21664       -0.21817
C         11.34376        7.39746       -1.08909
C         11.98639        7.38873       -2.47827
H         -0.70004        6.78649        1.11118
H         -0.38469        5.74650        2.51266
H         -0.38721        5.05700        0.87829
H          1.65094        7.12888        1.92814
H          1.64415        6.46791        0.29626
H          2.05104        4.16815        1.20397
H          2.01357        4.79669        2.84917
H          4.01169        6.23430        2.36483
H          4.04622        5.64816        0.70263
H          4.45289        3.31089        1.50956
H          4.36337        3.85551        3.18272
H          6.34748        5.33532        2.82209
H          6.45252        4.82016        1.13833
H          6.77774        2.42536        1.88622
H          6.73608        2.93513        3.56292
H          8.84276        3.74229        1.43799
H          9.08785        2.57813        2.74616
H          8.65742        6.04916        3.07648
H          9.02092        3.69563        5.65300
H          7.52393        4.59478        5.24887
H          9.12366        4.99150        7.84126
H          7.60479        5.79800        7.34127
H          8.78798        8.00426        7.29952
H         10.30092        7.21827        7.77492
H          9.24659        6.48724        9.94282
H          7.72715        7.24440        9.46908
H         10.39019        8.74839        9.90405
H          9.00854        8.73669       11.01500
H          8.85890        9.50870        9.42590
H         11.38191        4.05210        3.98595
H         11.26407        5.81835        4.03090
H         11.38512        4.04919        1.48206
H         12.68287        5.03575        2.12650
H         11.33064        7.12483        1.70016
H         10.02568        6.15375        1.01999
H         11.57289        5.27158       -0.74722
H         12.88420        6.24780       -0.09103
H         11.58736        8.34152       -0.57384
H         10.24503        7.38199       -1.19136
H         13.08311        7.43473       -2.41303
H         11.65423        8.24668       -3.07721
H         11.72588        6.47584       -3.03392
