71

C          0.72908       -0.52164       -0.18459
C          2.24853       -0.37991       -0.06866
C          2.72984        1.07446       -0.11790
C          4.24852        1.22414        0.01186
C          4.73306        2.67634       -0.04540
C          6.24943        2.82167        0.11328
C          6.74353        4.26991        0.03769
C          8.25768        4.40459        0.22479
C          8.77422        5.84163        0.09878
C         10.28746        5.95587        0.30556
C         10.83850        7.37115        0.10374
C         12.35511        7.45233        0.30021
C         12.94278        8.83597        0.00012
C         14.46462        8.84948        0.15955
C         15.18594       10.11136       -0.23664
C         14.48669       11.21556       -0.68423
N         15.12723       12.35121       -1.07151
C         16.47414       12.46773       -1.05738
C         17.23593       11.39828       -0.59110
C         16.61266       10.22047       -0.17360
C         17.46804        9.08133        0.31523
C         17.45862        7.88404       -0.62910
C         17.27913        6.59210       -0.11808
C         17.28049        5.48705       -0.97112
C         17.45276        5.66310       -2.34656
C         17.63307        6.94836       -2.86399
C         17.63689        8.05311       -2.00989
N         17.00407       13.62369       -1.64845
O         16.11351       14.72446       -1.59052
O         18.24347       13.94314       -1.08863
H          0.41744       -1.57469       -0.15097
H          0.35836       -0.09559       -1.12901
H          0.21578        0.00231        0.63582
H          2.73511       -0.94950       -0.87878
H          2.59157       -0.84308        0.87221
H          2.23680        1.64821        0.68703
H          2.39534        1.53677       -1.06369
H          4.74209        0.64414       -0.78812
H          4.57928        0.76708        0.96135
H          4.22673        3.26159        0.74248
H          4.42035        3.12818       -1.00336
H          6.75672        2.22441       -0.66504
H          6.55804        2.38120        1.07788
H          6.22527        4.87474        0.80254
H          6.45475        4.70366       -0.93603
H          8.77359        3.76984       -0.51725
H          8.53963        4.00051        1.21300
H          8.25319        6.48670        0.82771
H          8.51026        6.23719       -0.89790
H         10.80058        5.26933       -0.39078
H         10.54524        5.60359        1.31966
H         10.33669        8.06796        0.79755
H         10.58318        7.71781       -0.91321
H         12.84562        6.70955       -0.35271
H         12.60928        7.16129        1.33411
H         12.47583        9.58550        0.66281
H         12.67203        9.11363       -1.03391
H         14.89678        8.02328       -0.42885
H         14.73015        8.61310        1.20567
H         13.40189       11.24871       -0.75094
H         14.59909       13.16425       -1.39708
H         18.31786       11.50220       -0.55696
H         17.10749        8.75554        1.30351
H         18.49725        9.44204        0.46068
H         17.13652        6.44962        0.95500
H         17.14485        4.48644       -0.55980
H         17.44921        4.80056       -3.01317
H         17.77405        7.09244       -3.93560
H         17.78323        9.05140       -2.42807
H         16.21974       15.10891       -0.69002
H         18.76315       14.27839       -1.84542
