84

C          3.12937        3.67435      -12.29015
C          4.53966        3.74509      -11.69885
C          4.55248        4.01657      -10.18996
C          5.96020        4.05594       -9.58704
C          5.98124        4.33979       -8.08094
C          7.39334        4.33567       -7.48623
C          7.44613        4.71167       -6.00193
C          8.86330        4.65290       -5.41948
C          8.96163        5.20034       -3.99069
C         10.35727        5.10234       -3.36633
N         11.34389        5.86394       -4.16003
C         12.46336        5.35159       -4.71254
N         12.81840        5.72523       -5.95476
C         14.15602        5.48712       -6.56607
C         14.77375        6.76867       -7.10351
C         16.05764        6.51337       -7.90351
C         16.60980        7.77930       -8.56914
C         17.84878        7.50959       -9.43041
C         18.38167        8.75446      -10.14813
C         19.57690        8.46443      -11.06281
C         20.08464        9.69551      -11.82062
C         21.25656        9.39774      -12.76331
C         21.74210       10.62840      -13.53350
O         14.99323        4.92562       -5.57926
C         14.31350        3.89294       -4.88458
N         13.24124        4.46149       -4.05821
C         13.46732        4.53189       -2.59092
C         14.60983        5.47038       -2.18446
C         14.37152        6.95311       -2.49351
C         15.52094        7.84357       -2.01516
H          3.15568        3.48869      -13.37265
H          2.57936        4.61351      -12.12776
H          2.54347        2.86536      -11.82877
H          5.11662        4.53268      -12.21350
H          5.07245        2.80025      -11.90192
H          3.95686        3.24185       -9.67542
H          4.03969        4.97374       -9.98817
H          6.55890        4.82416      -10.10868
H          6.46680        3.09435       -9.78406
H          5.36243        3.59114       -7.55649
H          5.50377        5.31619       -7.88614
H          8.02817        5.03752       -8.05705
H          7.84375        3.33751       -7.62861
H          6.78598        4.04438       -5.42270
H          7.03872        5.72902       -5.86970
H          9.53623        5.22180       -6.08751
H          9.22956        3.61141       -5.44149
H          8.27226        4.65422       -3.32769
H          8.62478        6.25172       -3.96399
H         10.69214        4.05605       -3.33894
H         10.34372        5.48194       -2.33330
H         10.98299        6.70060       -4.61095
H         12.10530        6.13321       -6.55190
H         14.00301        4.76003       -7.38928
H         14.95628        7.45133       -6.25814
H         14.02633        7.25359       -7.75495
H         15.85152        5.75765       -8.68165
H         16.82088        6.07435       -7.24260
H         16.85111        8.52890       -7.79587
H         15.82338        8.23301       -9.19788
H         17.60424        6.73741      -10.18098
H         18.64621        7.07713       -8.80147
H         18.66474        9.51738       -9.40204
H         17.56915        9.20375      -10.74606
H         19.29414        7.68265      -11.78984
H         20.40056        8.03583      -10.46526
H         20.38658       10.47385      -11.09766
H         19.25381       10.13228      -12.40287
H         20.95556        8.61178      -13.47672
H         22.09193        8.97233      -12.18176
H         20.93853       11.05469      -14.15248
H         22.57848       10.38124      -14.20146
H         22.08615       11.41880      -12.84991
H         15.03964        3.39854       -4.23267
H         13.88309        3.16147       -5.59023
H         13.66576        3.50411       -2.25711
H         12.53182        4.84429       -2.11440
H         15.55487        5.14194       -2.64786
H         14.74981        5.33553       -1.09919
H         13.42699        7.27707       -2.02480
H         14.24243        7.09096       -3.57979
H         15.66518        7.76218       -0.92838
H         15.32785        8.89940       -2.24521
H         16.46892        7.56529       -2.49829
