57

C          0.92896        0.09098        0.78434
C          2.22830       -0.38625        0.13146
C          2.75833        0.57281       -0.94107
C          4.02474        0.06384       -1.63739
C          4.58074        1.03774       -2.68342
C          5.81991        0.48460       -3.40213
C          6.37173        1.48385       -4.42049
S          7.81395        0.69476       -5.24603
C          8.14370        1.83591       -6.48088
N          7.63228        3.04258       -6.69124
N          8.21885        3.50881       -7.83100
C          9.03616        2.57813       -8.26472
O          9.05656        1.48491       -7.44916
C          9.81158        2.71763       -9.47590
N          9.84585        4.00385       -9.92539
N         10.43717        4.45699      -11.01652
C         11.08372        3.55831      -11.73458
C         11.13021        2.17425      -11.39835
C         10.46974        1.72107      -10.23687
C         10.39868        0.25978       -9.90850
C          9.12793       -0.37664      -10.51634
O          8.01874        0.34701      -10.02138
C          6.74851       -0.32129      -10.04150
C          6.07325        0.01153       -8.71631
O          4.75607       -0.49182       -8.72854
C          4.08791       -0.26017       -7.49592
C         11.82408        1.29438      -12.25833
C         12.43677        0.58931      -13.03258
H          0.58767       -0.61038        1.55765
H          0.12113        0.18718        0.04385
H          1.05718        1.07352        1.26224
H          2.06991       -1.38102       -0.31845
H          3.00202       -0.52546        0.90525
H          2.95971        1.55696       -0.48289
H          1.97142        0.74636       -1.69620
H          3.80930       -0.90536       -2.11994
H          4.80280       -0.14002       -0.88151
H          4.83359        1.99538       -2.19795
H          3.79848        1.26693       -3.42735
H          5.55893       -0.45818       -3.91102
H          6.59748        0.23850       -2.66035
H          6.71296        2.41441       -3.94942
H          5.63973        1.72515       -5.20254
H          9.32349        4.70104       -9.38015
H         11.58274        3.93780      -12.62576
H         10.39271        0.10034       -8.82486
H         11.27821       -0.24636      -10.32801
H          9.08484       -1.43637      -10.20992
H          9.17481       -0.34040      -11.62140
H          6.88398       -1.41043      -10.14371
H          6.14363        0.03300      -10.89240
H          6.07456        1.11273       -8.57376
H          6.65777       -0.43563       -7.88743
H          3.08315       -0.68691       -7.58689
H          4.00385        0.82173       -7.28133
H          4.61514       -0.75088       -6.65552
H         12.97686       -0.03817      -13.71440
