61

C          2.71164       -1.59256       -2.50962
C          4.13502       -1.19991       -2.10826
C          4.58510       -1.83505       -0.78845
C          6.00025       -1.42868       -0.36549
C          6.44783       -2.05966        0.95676
C          7.82939       -1.57972        1.41549
C          8.28288       -2.22505        2.73342
C          9.60106       -1.63626        3.20299
O          9.98908       -2.19441        4.52095
C         10.89258       -3.16050        4.53895
O         11.48446       -3.65214        3.59139
C         11.14065       -3.66093        5.96513
N         12.37659       -4.52210        5.93567
C         13.66817       -3.72680        6.23376
C         13.92816       -3.59585        7.73296
O         12.74920       -3.13472        8.39010
C         14.87135       -4.34880        5.51649
C         14.82049       -4.30034        3.98718
C         12.23885       -5.80144        6.72851
C         11.43319       -6.83462        5.95829
O         12.11749       -7.02895        4.73091
C         11.51792       -7.99282        3.87628
C         12.30424       -8.01365        2.56746
F         13.60161       -8.34374        2.76680
F         11.75608       -8.92542        1.73430
F         12.27887       -6.80644        1.95248
H          2.41906       -1.12798       -3.46071
H          1.98219       -1.27987       -1.74763
H          2.61830       -2.68209       -2.62914
H          4.20508       -0.10238       -2.02385
H          4.83822       -1.48782       -2.90767
H          4.52887       -2.93443       -0.87613
H          3.87392       -1.55709        0.00904
H          6.04948       -0.32923       -0.27804
H          6.71415       -1.70257       -1.16134
H          6.45415       -3.15878        0.85584
H          5.70668       -1.82834        1.74115
H          7.80707       -0.48278        1.53352
H          8.57294       -1.78923        0.62809
H          8.39093       -3.31319        2.59830
H          7.51803       -2.06514        3.50972
H          9.51846       -0.55960        3.39650
H         10.41934       -1.82836        2.49825
H         10.28400       -4.27098        6.28224
H         11.26910       -2.85133        6.68901
H         12.45316       -4.78981        4.92432
H         13.46215       -2.73137        5.81214
H         14.76121       -2.88187        7.84240
H         14.26650       -4.56098        8.15202
H         12.97054       -2.88084        9.29990
H         15.02285       -5.38333        5.86554
H         15.75307       -3.79077        5.86833
H         14.00939       -4.90739        3.56147
H         15.75823       -4.69217        3.57427
H         14.69751       -3.27149        3.62268
H         11.78925       -5.56001        7.69834
H         13.25098       -6.19190        6.88670
H         10.38883       -6.51130        5.78096
H         11.39540       -7.76179        6.55915
H         10.47063       -7.73566        3.64063
H         11.55538       -9.00349        4.31734
