86

C          3.50545        2.21546        2.04560
C          3.67827        1.24800        2.95069
C          2.94683       -0.07330        2.91981
C          3.86748       -1.21435        2.62667
N          3.85591       -2.39933        3.17664
N          4.87357       -3.10588        2.56174
C          5.51740       -2.34047        1.65365
N          6.58070       -2.65998        0.90801
C          7.10706       -1.82572       -0.17702
C          8.46157       -2.41254       -0.59951
O          8.35082       -3.81484       -0.81272
C          8.04679       -4.19656       -2.16865
C          9.30978       -4.27537       -3.02679
O          8.84887       -4.51115       -4.34642
C          9.78137       -4.56768       -5.36705
C         11.16509       -4.47754       -5.18425
C         12.00875       -4.53471       -6.29818
C         11.51937       -4.68422       -7.60498
C         10.12380       -4.77062       -7.75039
C          9.26254       -4.71801       -6.65609
C         12.48325       -4.69605       -8.80370
C         13.57844       -5.80755       -8.68508
C         13.30091       -7.34090       -8.71534
C         12.77496       -7.83841      -10.07675
C         14.67089       -8.01356       -8.47620
C         12.34084       -7.80067       -7.60395
C         11.73347       -4.76317      -10.14674
C         13.24970       -3.34574       -8.79780
N          4.87689       -1.13936        1.67641
C          5.19531       -4.46694        3.00783
C          6.35497       -4.52714        4.01566
C          6.19255       -3.64001        5.25674
C          5.03850       -4.04146        6.19242
N          4.86840       -3.09832        7.28374
C          5.69627       -2.98150        8.38169
C          5.28224       -1.88750        9.11923
C          4.16853       -1.31548        8.44270
C          3.93817       -2.07804        7.31209
H          4.04691        3.15878        2.11381
H          2.79216        2.11396        1.22395
H          4.38062        1.38931        3.77772
H          2.15315       -0.04861        2.15488
H          2.46313       -0.28927        3.88359
H          6.87283       -3.63706        0.85221
H          7.25818       -0.79466        0.17849
H          6.40355       -1.80769       -1.02660
H          9.19369       -2.27288        0.20959
H          8.82625       -1.87993       -1.49167
H          7.33161       -3.49481       -2.63152
H          7.56590       -5.18189       -2.11102
H          9.96480       -5.08960       -2.67038
H          9.88091       -3.32904       -2.97115
H         11.60038       -4.36655       -4.19120
H         13.08369       -4.46139       -6.12555
H          9.68365       -4.88286       -8.74050
H          8.18233       -4.78737       -6.78966
H         14.12973       -5.60948       -7.74999
H         14.30151       -5.60381       -9.49439
H         13.38847       -7.46202      -10.90857
H         11.73464       -7.54328      -10.26007
H         12.80888       -8.93751      -10.10974
H         15.39331       -7.73771       -9.25887
H         14.56971       -9.10874       -8.48363
H         15.09648       -7.72016       -7.50491
H         11.32934       -7.39498       -7.73572
H         12.69792       -7.49130       -6.61068
H         12.26453       -8.89864       -7.60651
H         11.07046       -5.63157      -10.23161
H         12.45559       -4.81702      -10.97284
H         11.12509       -3.85957      -10.29800
H         13.86390       -3.22763       -7.89471
H         12.54633       -2.50226       -8.84289
H         13.91778       -3.28279       -9.66914
H          5.11620       -0.30752        1.14268
H          5.41489       -5.07372        2.11627
H          4.26006       -4.84969        3.43358
H          7.29481       -4.26331        3.50608
H          6.45876       -5.58477        4.30762
H          6.05061       -2.58871        4.96065
H          7.13321       -3.66729        5.82521
H          5.21877       -5.04587        6.60772
H          4.08386       -4.08003        5.64893
H          6.49750       -3.69335        8.55400
H          5.72129       -1.55027       10.05264
H          3.58389       -0.45860        8.76210
H          3.17415       -2.00966        6.54386
