72

C          2.18416        4.45918        2.19934
C          3.21117        3.44872        1.68145
C          3.96432        3.93114        0.43659
C          4.98978        2.92216       -0.09069
C          5.75309        3.41118       -1.32552
C          6.77282        2.39801       -1.85727
C          7.55866        2.90625       -3.06981
C          8.57782        1.89503       -3.60818
C          9.39591        2.45101       -4.78068
C         10.41544        1.45942       -5.31234
O         11.20024        2.13023       -6.33124
C         12.18325        1.30330       -6.91990
N         13.01911        2.12054       -7.79696
C         12.45467        2.80586       -8.82953
N         13.23130        3.49813       -9.67120
C         12.73541        4.39776      -10.72037
C         12.32123        5.79777      -10.21921
C         13.49622        6.52879       -9.55556
C         11.73303        6.59954      -11.38700
N         11.12019        2.72433       -9.00172
C         14.46931        2.10708       -7.62720
O         14.92683        3.43816       -7.52309
C         16.31406        3.54719       -7.12028
C         16.65887        5.02395       -7.00170
C         15.78610        5.82179       -6.01725
C         15.81904        5.31273       -4.57299
H          1.66284        4.08318        3.09016
H          1.42152        4.68000        1.43739
H          2.66275        5.41182        2.47208
H          2.70711        2.49448        1.45262
H          3.93890        3.22077        2.47860
H          4.47320        4.88449        0.66571
H          3.23701        4.16364       -0.36152
H          4.47840        1.97278       -0.32901
H          5.71077        2.68245        0.71090
H          6.27153        4.35543       -1.08238
H          5.03392        3.65932       -2.12613
H          6.25351        1.46038       -2.12235
H          7.47938        2.13447       -1.05059
H          8.08347        3.83856       -2.79784
H          6.85509        3.17904       -3.87562
H          8.05372        0.97490       -3.91929
H          9.26064        1.59738       -2.79377
H          9.92920        3.36160       -4.46366
H          8.72054        2.74837       -5.60020
H          9.92672        0.56822       -5.74743
H         11.09770        1.11933       -4.51193
H         11.71016        0.48472       -7.49889
H         12.84396        0.85706       -6.15890
H         14.17172        3.67889       -9.31098
H         11.91043        3.90234      -11.25540
H         13.54908        4.48941      -11.45497
H         11.53012        5.66717       -9.45804
H         14.32296        6.67546      -10.26821
H         13.88553        5.98632       -8.68275
H         13.18401        7.52171       -9.20651
H         12.48202        6.76216      -12.17676
H         11.39525        7.58641      -11.04567
H         10.86993        6.09242      -11.84216
H         10.58117        2.50310       -8.16078
H         10.68552        3.35289       -9.66597
H         14.94835        1.59469       -8.48656
H         14.68847        1.53355       -6.71223
H         16.95862        3.05092       -7.86722
H         16.43854        3.02112       -6.15702
H         16.60415        5.48360       -8.00175
H         17.71677        5.08082       -6.69709
H         14.74582        5.83305       -6.37815
H         16.12567        6.86827       -6.04330
H         15.37767        4.30975       -4.47583
H         15.24803        5.97871       -3.91291
H         16.84642        5.26419       -4.18369
