50

C          2.05173       -1.52511        0.22025
C          2.93684       -0.30871        0.49554
C          3.40470        0.38300       -0.79330
C          4.33818        1.54967       -0.49291
N          4.84880        2.20594       -1.78006
C          4.40947        3.66462       -1.99145
C          5.00755        4.16448       -3.31395
O          6.41335        3.99019       -3.40565
C          6.76070        2.62902       -3.31501
C          6.35515        2.03466       -1.97095
Br         7.32519        2.85932       -0.50207
C          2.88522        3.78211       -2.01281
C          2.49182        5.26612       -1.80760
O          3.35473        6.07506       -1.45651
N          1.18608        5.58152       -2.01945
C          0.73863        6.97152       -1.80091
C         -0.13514        7.14870       -0.55436
C          0.57297        6.84224        0.76892
C         -0.33190        7.05703        1.98371
C          0.17841        4.59868       -2.41254
H          1.74750       -2.00387        1.15935
H          2.58257       -2.27757       -0.38045
H          1.13761       -1.24419       -0.32206
H          3.81984       -0.61536        1.07943
H          2.39231        0.41825        1.11983
H          2.52747        0.73251       -1.36497
H          3.92908       -0.35396       -1.42826
H          5.22423        1.22266        0.06476
H          3.85396        2.33430        0.10080
H          4.43120        1.66596       -2.55600
H          4.82791        4.23351       -1.15134
H          4.81098        5.24109       -3.38103
H          4.50808        3.65372       -4.16507
H          7.84739        2.54564       -3.43869
H          6.27355        2.03770       -4.12223
H          6.55791        0.95759       -1.91892
H          2.41650        3.19620       -1.20766
H          2.48060        3.38988       -2.95990
H          0.18575        7.28429       -2.70035
H          1.64515        7.58381       -1.72588
H         -1.04873        6.53478       -0.64024
H         -0.48174        8.19511       -0.55315
H          1.47229        7.47293        0.85269
H          0.93483        5.79970        0.76126
H         -0.67604        8.09954        2.04331
H          0.19339        6.82725        2.92027
H         -1.22557        6.41685        1.93606
H          0.46019        4.06935       -3.33476
H         -0.75942        5.12750       -2.61368
H         -0.02092        3.85833       -1.62165
