72

C          0.50996       -0.76135       -0.09966
C          2.03101       -0.91687       -0.17386
C          2.60587       -0.62001       -1.56349
C          4.12621       -0.78595       -1.64904
C          4.70425       -0.47794       -3.03421
C          6.22191       -0.66879       -3.11917
C          6.81419       -0.31313       -4.48671
C          8.32707       -0.53989       -4.57362
C          8.94224       -0.07883       -5.89867
C         10.45138       -0.32792       -5.98981
C         11.08034        0.22145       -7.27494
C         12.59274       -0.01457       -7.35720
C         13.21146        0.66140       -8.58812
N         14.66219        0.49863       -8.68870
C         15.56010        1.17502       -7.96881
N         15.25636        2.23461       -7.19201
N         16.80863        0.71079       -8.13706
C         16.79388       -0.47877       -9.00919
C         15.34117       -0.49794       -9.56414
Si        15.27097       -0.04201      -11.45723
C         15.94123        1.70922      -11.59967
C         16.34570       -1.31021      -12.33536
C         13.50383       -0.15057      -12.09720
C         18.02135        1.23964       -7.52471
C         18.65017        2.39999       -8.29406
O         19.01998        1.90992       -9.57973
H          0.13059       -0.97831        0.90833
H          0.00417       -1.44409       -0.79870
H          0.19987        0.26237       -0.35760
H          2.31175       -1.94177        0.12280
H          2.50677       -0.24945        0.56479
H          2.33284        0.40910       -1.85745
H          2.12413       -1.28155       -2.30519
H          4.39634       -1.81779       -1.36265
H          4.60740       -0.13117       -0.90103
H          4.45039        0.56037       -3.31202
H          4.21297       -1.11919       -3.78697
H          6.47103       -1.71620       -2.87343
H          6.71053       -0.05380       -2.34279
H          6.59027        0.74406       -4.71462
H          6.31020       -0.90346       -5.27184
H          8.54598       -1.61086       -4.41879
H          8.82249       -0.00809       -3.74196
H          8.74212        0.99864       -6.03484
H          8.43647       -0.58760       -6.73773
H         10.65179       -1.41061       -5.91470
H         10.94947        0.13323       -5.11855
H         10.87537        1.30507       -7.34110
H         10.58873       -0.23159       -8.15278
H         12.81056       -1.09418       -7.39228
H         13.07475        0.36313       -6.43910
H         12.96735        1.73817       -8.61239
H         12.77974        0.24371       -9.50559
H         14.28803        2.45875       -7.00511
H         15.94314        2.60833       -6.55052
H         17.03774       -1.37698       -8.41813
H         17.55455       -0.36556       -9.79243
H         14.88270       -1.48382       -9.39129
H         16.95518        1.79702      -11.18382
H         15.29003        2.42394      -11.07609
H         15.98190        2.01516      -12.65461
H         17.39927       -1.26705      -12.02812
H         16.31384       -1.12803      -13.41896
H         15.97950       -2.33230      -12.16378
H         12.86242        0.65774      -11.72105
H         13.03530       -1.11381      -11.84985
H         13.51448       -0.06751      -13.19385
H         18.73933        0.40944       -7.46692
H         17.81882        1.54652       -6.48516
H         19.52536        2.75490       -7.72146
H         17.93265        3.23777       -8.37830
H         19.53868        2.58795      -10.03995
