41

F          2.57535        2.29192       -2.02588
C          2.09606        2.60550       -0.73502
C          2.65024        1.59689        0.26944
C          4.14102        1.58859        0.33899
N          4.96181        1.67744       -0.72893
C          6.29327        1.59444       -0.35080
C          6.26397        1.45419        1.01040
N          4.93593        1.46075        1.42148
C          4.51506        1.21327        2.80419
C          4.40041       -0.30287        3.08509
C          4.01927       -0.56861        4.54097
O          2.66853       -0.11058        4.67979
O          3.45832       -0.89225        2.19888
C          7.42931        1.70337       -1.30915
C          7.63641        3.13285       -1.84999
C          8.84849        3.23774       -2.78068
C          8.97189        4.61900       -3.43682
N          7.80859        4.89219       -4.29379
H          0.99989        2.55223       -0.76931
H          2.41218        3.63535       -0.51359
H          2.30207        0.58405        0.01054
H          2.23168        1.82211        1.26014
H          4.60704        1.81292       -1.67561
H          7.07693        1.35732        1.71944
H          3.55243        1.70761        2.98216
H          5.26091        1.68221        3.45982
H          5.37596       -0.77353        2.88083
H          4.70063       -0.03726        5.22848
H          4.09730       -1.65047        4.73412
H          2.28713       -0.47074        5.49446
H          2.60200       -0.86839        2.66813
H          7.26522        1.00565       -2.14736
H          8.33722        1.35554       -0.79450
H          7.75885        3.82407       -0.99970
H          6.74402        3.46851       -2.40209
H          8.77452        2.47141       -3.57279
H          9.77531        3.01735       -2.22632
H          9.94107        4.67452       -3.96663
H          8.99967        5.39305       -2.65351
H          7.89157        4.38727       -5.17794
H          7.76564        5.88171       -4.53603
