55

O          7.20789        3.85969        2.27827
C          5.88308        4.38832        2.46498
C          5.20246        4.47912        1.11051
N          4.94397        3.15260        0.52404
C          4.57865        3.17179       -0.89173
C          5.81427        3.36567       -1.79152
C          7.05241        2.57159       -1.37479
N          6.89736        1.06923       -1.15467
C          6.09114        0.63304        0.16393
O          5.01582        0.14693        0.00001
C          6.93348        0.72478        1.38737
C          6.47518        0.28489       -2.38368
O          7.69131        0.09799       -3.05266
C          7.68275       -0.62815       -4.25499
C          6.48783       -1.05788       -4.83780
C          6.49578       -1.77638       -6.04307
C          5.20671       -2.22121       -6.68412
C          7.73464       -2.04627       -6.63497
C          8.91669       -1.61220       -6.03508
C          8.93953       -0.89535       -4.83010
C         10.27722       -0.48549       -4.22734
C         10.46826        1.03853       -4.12483
C         10.57282       -1.19225       -2.89102
O          5.50982        3.05547       -3.15307
H          7.72133        4.03308        3.08264
H          5.92459        5.39709        2.90637
H          5.29932        3.74369        3.14854
H          5.86427        5.04190        0.43554
H          4.27336        5.07163        1.21733
H          4.20785        2.68519        1.05635
H          3.83880        3.95760       -1.14543
H          4.11426        2.20885       -1.14587
H          6.16147        4.41409       -1.72132
H          7.44321        2.97311       -0.43199
H          7.81376        2.67135       -2.15981
H          7.86119        0.73703       -0.98736
H          7.27758        1.75538        1.56866
H          7.81062        0.06432        1.28287
H          6.33764        0.38667        2.24136
H          5.75025        0.88655       -2.94766
H          6.02470       -0.65992       -2.04178
H          5.52640       -0.84105       -4.36972
H          4.36366       -2.16827       -5.98331
H          5.28169       -3.25352       -7.05154
H          4.96083       -1.58770       -7.55010
H          7.77824       -2.60458       -7.57152
H          9.87195       -1.84065       -6.51291
H         11.03450       -0.84531       -4.94276
H          9.79057        1.48554       -3.38395
H         10.28259        1.52850       -5.08992
H         11.49845        1.27002       -3.81967
H          9.87858       -0.87378       -2.10004
H         11.59342       -0.96025       -2.55537
H         10.48905       -2.28252       -2.99202
H          4.89042        3.71748       -3.50023
