53

C          1.63838       -1.88199        1.72034
O          2.94131       -1.41348        1.35252
C          3.36068       -0.33225        2.14850
C          4.62632        0.30180        1.62736
C          5.47861        0.86308        2.60693
N          6.63770        1.44637        2.35751
N          6.97967        1.46807        1.07462
C          6.27583        1.00189        0.02473
C          5.02283        0.39689        0.27874
C          4.15123       -0.00889       -0.86724
C          3.01126        1.03436       -1.04885
O          2.52112        1.60256       -0.07353
N          2.59359        1.19513       -2.32136
C          1.47222        2.05708       -2.69256
C          0.68798        1.46829       -3.86409
C         -0.50607        2.33889       -4.27084
C         -1.28608        1.75974       -5.45346
C          6.89887        1.19960       -1.32824
C          6.08601        2.09842       -2.24996
C          5.99397        1.78780       -3.61367
C          5.25223        2.61318       -4.45962
C          4.59102        3.73427       -3.94971
C          4.66357        4.05752       -2.58764
C          5.42718        3.22724       -1.75210
C          3.92881        5.24098       -2.01677
H          1.40974       -2.71990        1.05351
H          0.88497       -1.08737        1.59107
H          1.62427       -2.23546        2.76513
H          3.53811       -0.66439        3.19160
H          2.59293        0.46773        2.18140
H          5.20901        0.83431        3.66438
H          7.89006        1.90122        0.90317
H          3.65159       -0.95628       -0.62465
H          4.72614       -0.13106       -1.79099
H          3.14057        0.78247       -3.07046
H          1.84509        3.06368       -2.94703
H          0.84245        2.16281       -1.79892
H          0.33810        0.45853       -3.59219
H          1.36129        1.34262       -4.73140
H         -0.15151        3.35271       -4.52153
H         -1.17805        2.45746       -3.40505
H         -0.65404        1.68131       -6.35017
H         -2.14682        2.39093       -5.70950
H         -1.66756        0.75323       -5.22757
H          7.03146        0.21319       -1.79952
H          7.91654        1.60617       -1.19778
H          6.50618        0.91080       -4.01454
H          5.18983        2.38257       -5.52385
H          4.00921        4.36879       -4.62073
H          5.48164        3.47033       -0.68721
H          3.39937        5.80143       -2.79653
H          4.61797        5.93387       -1.51273
H          3.19040        4.91704       -1.26802
