52

F          3.38106        1.72779        0.06520
C          3.75236        1.78749       -1.28911
C          4.67201        0.61854       -1.60783
C          3.96288       -0.73659       -1.45542
C          4.93232       -1.92324       -1.54963
N          5.75585       -2.02224       -0.32741
C          6.02601       -3.21556        0.12469
S          5.36381       -4.51471       -0.70911
C          4.31991       -3.35527       -1.81661
C          2.83887       -3.48487       -1.36103
C          2.51350       -3.75685        0.11300
O          3.13980       -2.74376        0.92395
C          1.00350       -3.79009        0.32980
C          4.57898       -3.81920       -3.32208
C          4.15780       -5.31619       -3.47540
C          3.70476       -5.87342       -4.84886
C          4.78708       -5.91347       -5.93776
C          3.13173       -7.28242       -4.62766
C          3.83151       -2.86512       -4.30162
O          2.41926       -2.77774       -4.15677
C          6.07477       -3.69064       -3.69611
H          4.25549        2.75129       -1.45366
H          2.82627        1.75672       -1.88536
H          5.55231        0.70289       -0.94650
H          5.04798        0.74207       -2.63721
H          3.21805       -0.83106       -2.25833
H          3.41824       -0.78721       -0.50316
H          5.64633       -1.70902       -2.36051
H          6.07648       -1.18257        0.15299
H          6.66201       -3.35575        1.00002
H          2.36087       -4.28998       -1.92843
H          2.31555       -2.57542       -1.67873
H          2.93527       -4.74230        0.39482
H          2.74659       -2.78268        1.81022
H          0.54620       -2.83048        0.05140
H          0.76933       -3.99273        1.38503
H          0.53478       -4.58634       -0.26439
H          3.33303       -5.53883       -2.78517
H          5.00305       -5.93842       -3.12993
H          2.87327       -5.24859       -5.22477
H          5.67129       -6.47393       -5.59802
H          5.12001       -4.91733       -6.25817
H          4.40231       -6.42073       -6.83273
H          3.90772       -7.96904       -4.25621
H          2.74419       -7.70034       -5.56615
H          2.30996       -7.27799       -3.89750
H          4.10870       -3.15229       -5.32740
H          4.21508       -1.84143       -4.16334
H          2.00132       -3.45831       -4.70602
H          6.72259       -4.19560       -2.96713
H          6.41796       -2.65024       -3.78897
H          6.25676       -4.16196       -4.66691
