38

Br         1.07323       -0.79495       -1.24670
N          2.80567       -0.53352       -0.63736
N          3.56406       -1.60004       -0.29994
C          4.70904       -1.06385        0.05558
N          4.68465        0.30668       -0.05105
C          3.44621        0.64441       -0.50233
C          2.89683        2.00121       -0.76214
C          1.92146        2.49207        0.33683
C          2.58845        2.72059        1.69556
S          1.30886        3.02349        2.94165
O          0.65171        4.27808        2.65182
O          0.57940        1.79155        3.10048
O          2.23115        3.21641        4.25890
C          5.79673        1.25416        0.24328
C          7.11333        0.55617        0.59821
C          8.17826        1.60531        0.84788
C          8.41164        2.08478        2.14429
C          9.37355        3.07231        2.36849
C         10.10689        3.59050        1.29776
C          9.88024        3.11725        0.00250
C          8.91970        2.12892       -0.22105
H          5.56536       -1.63902        0.38892
H          2.36202        1.97113       -1.72362
H          3.73157        2.70478       -0.88624
H          1.10144        1.76829        0.44791
H          1.46914        3.42881       -0.01536
H          3.26074        3.58930        1.69485
H          3.13084        1.83691        2.06295
H          2.13782        4.14429        4.55238
H          5.47477        1.89895        1.07228
H          5.93213        1.88260       -0.64769
H          7.42413       -0.10386       -0.22644
H          6.98567       -0.06183        1.49993
H          7.85243        1.67166        2.98725
H          9.55800        3.42970        3.38176
H         10.86137        4.35731        1.47485
H         10.45950        3.51002       -0.83343
H          8.75964        1.75008       -1.23358
