65

C          0.42788        3.13361        1.00751
C          1.88884        2.68533        0.92031
C          2.56629        3.06767       -0.40076
C          4.03131        2.62703       -0.48597
C          4.71552        3.00388       -1.80417
C          6.18577        2.57667       -1.86741
C          6.88431        2.96082       -3.17603
C          8.36806        2.57794       -3.20004
C          9.07705        2.97234       -4.50086
C         10.58610        2.68038       -4.45613
C         11.25986        3.08222       -5.76910
S         13.08237        3.05926       -5.60343
C         13.51682        1.25722       -5.58704
C         15.00836        1.09732       -5.64231
C         15.79665        1.35541       -4.51184
C         17.18393        1.23016       -4.59988
C         17.78243        0.85326       -5.80305
C         17.01230        0.58557       -6.94788
C         15.62137        0.71680       -6.84710
C         17.66329        0.16159       -8.23756
C         13.68346        3.54854       -7.24641
C         13.55076        5.06739       -7.35905
O         12.90679        5.72737       -6.56477
O         14.22306        5.50434       -8.41916
C         14.16186        6.95532       -8.70159
C         13.00062        7.27296       -9.62129
H         -0.02604        2.84245        1.96465
H         -0.17687        2.68687        0.20436
H          0.33889        4.22660        0.91738
H          1.94760        1.59177        1.05364
H          2.45892        3.12147        1.75807
H          2.50524        4.16184       -0.53800
H          2.00125        2.62719       -1.24123
H          4.09187        1.53359       -0.34340
H          4.59352        3.07122        0.35454
H          4.64717        4.09613       -1.95215
H          4.16432        2.55030       -2.64669
H          6.25610        1.48429       -1.72260
H          6.73056        3.02871       -1.01987
H          6.78817        4.04909       -3.33534
H          6.36560        2.48274       -4.02518
H          8.47186        1.49061       -3.04076
H          8.87940        3.06069       -2.34903
H          8.92609        4.04809       -4.69218
H          8.61973        2.43856       -5.35113
H         10.74795        1.61025       -4.25096
H         11.03819        3.24163       -3.62212
H         11.05124        4.13093       -6.02545
H         10.98540        2.43513       -6.61543
H         12.99758        0.77739       -6.42739
H         13.08456        0.90338       -4.64101
H         15.33229        1.64735       -3.56782
H         17.80171        1.42412       -3.72285
H         18.86860        0.75830       -5.85650
H         15.00237        0.49835       -7.72177
H         18.46430        0.85682       -8.52463
H         16.94035        0.11253       -9.06104
H         18.12250       -0.83277       -8.13514
H         13.10985        3.03524       -8.03159
H         14.73125        3.22183       -7.30656
H         15.13162        7.15878       -9.16967
H         14.09380        7.48207       -7.74204
H         13.06293        6.69778      -10.55396
H         13.03131        8.34043       -9.87982
H         12.03610        7.07394       -9.13657
