96

C          1.57000      -14.97320        9.59710
C          3.09186      -14.82604        9.65968
C          3.58537      -13.48127        9.11774
C          5.10803      -13.31630        9.14497
C          5.57039      -11.95388        8.62003
C          7.09108      -11.76615        8.59680
C          7.50281      -10.36956        8.12078
C          9.01560      -10.13022        8.07689
C          9.36418       -8.69784        7.65709
C         10.87076       -8.40550        7.61362
C         11.13227       -6.94677        7.28369
O         12.55705       -6.68769        7.26909
C         12.86988       -5.32573        7.00828
C         14.39504       -5.23886        6.99632
N         14.87849       -6.38073        6.11207
C         16.37271       -6.55116        6.13505
C         16.99674       -5.23016        5.70581
N         16.51189       -4.17246        6.58045
C         15.05882       -3.91078        6.54639
C         14.51688       -3.42413        5.17131
C         15.15413       -2.13477        4.63087
C         14.56904       -1.68581        3.28234
C         13.07135       -1.35934        3.32175
C         12.54431       -0.72200        2.03255
C         11.02973       -0.49775        2.05636
C         10.48325        0.19055        0.80357
C          8.96232        0.37145        0.82459
C          8.42214        1.08264       -0.41677
C         14.75135       -2.83429        7.61429
O         14.92876       -3.36436        8.90924
C         14.93624       -2.35671        9.94220
O         15.36922       -2.91644       11.12496
C         16.79074       -3.17090       11.18403
C         17.06111       -3.93086       12.46878
O         16.46092       -5.22356       12.46886
H          1.24053      -15.94367        9.99263
H          1.20578      -14.89445        8.56191
H          1.06992      -14.18768       10.18306
H          3.56568      -15.64321        9.09007
H          3.43309      -14.94508       10.70177
H          3.12030      -12.66493        9.69836
H          3.22613      -13.35543        8.08095
H          5.57361      -14.11934        8.54713
H          5.47413      -13.45453       10.17740
H          5.11826      -11.15811        9.23786
H          5.17337      -11.80508        7.60040
H          7.54690      -12.53084        7.94412
H          7.49939      -11.94414        9.60693
H          7.03985       -9.61638        8.78230
H          7.07918      -10.18958        7.11712
H          9.48514      -10.84700        7.38122
H          9.45075      -10.33599        9.06999
H          8.88012       -7.99594        8.35783
H          8.92215       -8.49267        6.66686
H         11.35743       -9.04857        6.86199
H         11.32865       -8.64207        8.58702
H         10.66508       -6.28896        8.03843
H         10.71163       -6.68134        6.29546
H         12.47936       -4.66173        7.79920
H         12.42789       -5.00893        6.04354
H         14.77673       -5.47901        7.99763
H         14.57080       -6.20660        5.14362
H         14.35439       -7.21212        6.44035
H         16.63260       -7.37766        5.46168
H         16.64677       -6.80667        7.16622
H         16.79706       -5.06971        4.62381
H         18.08653       -5.31120        5.81630
H         17.03572       -3.30961        6.44365
H         13.43126       -3.27460        5.25919
H         14.64807       -4.20960        4.40306
H         16.24250       -2.27210        4.52133
H         15.01399       -1.31884        5.35801
H         14.75917       -2.45999        2.51859
H         15.12291       -0.79351        2.95023
H         12.86964       -0.67843        4.16820
H         12.48798       -2.27498        3.52139
H         12.80668       -1.36124        1.17172
H         13.05936        0.23935        1.86554
H         10.76464        0.10313        2.94428
H         10.52261       -1.47047        2.18737
H         10.76820       -0.39219       -0.08993
H         10.96653        1.17639        0.68879
H          8.67806        0.93729        1.72786
H          8.48281       -0.61729        0.92314
H          8.85252        2.08999       -0.51596
H          7.32991        1.19039       -0.37591
H          8.66824        0.52652       -1.33337
H         13.71797       -2.45989        7.46902
H         15.43012       -1.97497        7.44719
H         13.90973       -1.98886       10.11343
H         15.59007       -1.52156        9.60787
H         17.33602       -2.20917       11.17795
H         17.09670       -3.77438       10.31490
H         16.72319       -3.33209       13.33330
H         18.14440       -4.08836       12.56983
H         15.49986       -5.09035       12.45248
