56

O          2.80684       -0.40043        2.38243
C          2.15939       -0.58857        1.12476
C          2.94881       -1.64775        0.34956
C          4.41705       -1.25217        0.21949
C          4.76490       -0.03673       -0.63120
C          6.29073       -0.11832       -0.72319
C          6.61340       -1.62034       -0.85716
N          5.33903       -2.35341       -0.37201
C          4.67973       -3.21361       -1.42657
C          5.54865       -4.31036       -2.05120
C          6.10882       -5.44223       -1.16726
C          5.07464       -6.25038       -0.35394
S          5.18424       -5.79842        1.39451
O          6.38891       -6.33808        1.96895
O          4.90146       -4.37064        1.52123
Cl         3.56851       -6.79128        2.18213
C          7.83864       -2.09600       -0.07875
C          9.14077       -1.45134       -0.57790
C         10.39086       -2.01364        0.10900
S         10.67854       -3.72428       -0.44108
C         11.80763       -4.33467        0.78623
S         12.29378       -3.50540        2.11396
N         12.23403       -5.63530        0.48598
C         11.99552       -6.38153       -0.67674
N         12.53361       -7.56840       -0.61234
C         13.15661       -7.62942        0.63161
C         12.99486       -6.46170        1.31972
H          2.25854        0.17448        2.93802
H          2.11669        0.35650        0.55274
H          1.12508       -0.94918        1.25180
H          2.47360       -1.76723       -0.63544
H          2.86993       -2.60039        0.89486
H          4.81557       -1.09928        1.23379
H          4.42494        0.89010       -0.15489
H          4.28850       -0.09481       -1.62286
H          6.74038        0.27805        0.19947
H          6.70357        0.45147       -1.56400
H          6.71981       -1.88576       -1.91784
H          5.56223       -2.99690        0.41011
H          4.32814       -2.53851       -2.21775
H          3.79898       -3.65260       -0.94338
H          6.39219       -3.86662       -2.60079
H          4.90752       -4.75906       -2.82696
H          6.90324       -5.07273       -0.50075
H          6.62109       -6.14722       -1.83619
H          5.27211       -7.32961       -0.37293
H          4.03341       -6.07683       -0.65687
H          7.93592       -3.19000       -0.16006
H          7.70363       -1.86662        0.99220
H          9.12284       -0.36751       -0.38751
H          9.22456       -1.56893       -1.67138
H         10.30076       -2.02941        1.20473
H         11.27780       -1.41898       -0.14434
H         11.45500       -5.97110       -1.52422
H         13.68875       -8.52103        0.94864
H         13.31969       -6.11839        2.29330
