63

C          2.90166        0.45187        1.66379
C          2.55925       -0.71120        2.60546
C          3.08928       -2.05664        2.06536
C          2.52257       -2.47142        0.69991
C          3.05166       -3.80179        0.17011
C          2.59816       -4.17936       -1.23736
C          3.10477       -5.56344       -1.66348
C          2.72727       -6.65918       -0.65132
C          3.18008       -6.29224        0.77464
N          2.60726       -4.92486        1.11511
C          4.70810       -6.27057        1.08909
O          5.51636       -6.59244        0.24661
C          5.10381       -5.86803        2.49555
C          3.18140       -8.06101       -1.10644
C          2.90915       -9.17563       -0.09407
C          3.22261      -10.56874       -0.64092
C          3.15329      -11.62898        0.45569
O          3.04456      -11.37599        1.63238
O          3.24032      -12.92270        0.04223
C          3.09559       -0.48119        4.03191
C          2.46974        0.71455        4.77638
C          2.95655        0.82299        6.19435
C          3.79684        1.74213        6.70534
C          4.41349        2.86860        5.91838
C          4.18323        1.70662        8.16075
H          2.46297        0.32983        0.66386
H          3.99165        0.55692        1.54692
H          2.51880        1.40158        2.05640
H          1.45736       -0.79127        2.66970
H          2.85936       -2.82041        2.83569
H          4.19132       -2.00905        2.00099
H          2.78285       -1.71621       -0.05577
H          1.41786       -2.49437        0.72662
H          4.15280       -3.81592        0.22714
H          2.96275       -3.40512       -1.92670
H          1.49504       -4.13688       -1.28459
H          4.19710       -5.54393       -1.79249
H          2.67827       -5.82334       -2.64210
H          1.61960       -6.69280       -0.59103
H          2.72946       -6.98679        1.50325
H          2.85174       -4.65339        2.07904
H          1.57808       -4.97829        1.08086
H          5.08915       -4.76919        2.60238
H          6.13091       -6.19708        2.68594
H          4.43290       -6.29122        3.25797
H          4.25218       -8.03330       -1.35320
H          2.64750       -8.27257       -2.04677
H          1.85605       -9.15320        0.23371
H          3.51294       -9.04235        0.81693
H          4.23937      -10.59585       -1.07018
H          2.53489      -10.83766       -1.45988
H          3.31729      -12.96988       -0.92722
H          4.19039       -0.34352        3.99462
H          2.92479       -1.39299        4.63095
H          1.37170        0.59378        4.77700
H          2.67372        1.64494        4.22885
H          2.58349        0.05012        6.87634
H          4.14806        2.85998        4.85470
H          5.51212        2.83148        5.99148
H          4.11101        3.84309        6.33395
H          3.70554        0.87331        8.69154
H          3.89844        2.64376        8.66592
H          5.27490        1.61176        8.27876
