65

C          4.40037        4.40485        9.14410
C          4.61707        4.88517        7.70738
C          5.72341        4.11960        6.97332
C          5.95603        4.60732        5.54014
C          7.06753        3.85086        4.80650
C          7.31424        4.37529        3.38766
C          8.45265        3.64970        2.66444
C          8.72468        4.15833        1.24515
N          9.12788        5.57683        1.24222
N         10.36211        5.91464        1.70250
C         10.38509        7.22445        1.64366
N          9.20470        7.72766        1.16061
C          8.40553        6.65769        0.91268
C          7.02190        6.68298        0.34930
C          6.95363        6.16272       -1.06484
C          6.16341        5.18918       -1.52815
Br         4.96500        4.20964       -0.44505
Br         8.10572        7.04601       -2.30458
C          8.86074        9.15640        1.01079
C          8.04784        9.67933        2.19676
C          7.65445       11.14971        2.01463
N          6.74767       11.55470        3.07714
C          6.21398       12.91867        2.88993
C          5.31907       13.33325        4.03024
C          3.93364       13.44624        3.87065
C          3.10548       13.85622        4.91799
C          3.66834       14.16069        6.15904
C          5.04702       14.05091        6.34882
C          5.86301       13.63779        5.29218
O          7.22915       13.50128        5.43476
H          3.60195        4.97242        9.64061
H          5.31351        4.51956        9.74663
H          4.11790        3.34222        9.17223
H          4.86275        5.96088        7.71111
H          3.67513        4.79312        7.14070
H          5.47484        3.04402        6.95821
H          6.66499        4.20268        7.54423
H          6.20162        5.68459        5.55939
H          5.01567        4.52223        4.96736
H          6.81802        2.77719        4.76115
H          8.00416        3.92033        5.38605
H          7.53876        5.45580        3.45332
H          6.38505        4.28512        2.79719
H          8.21951        2.57753        2.56967
H          9.38302        3.71261        3.24997
H          7.83844        4.07343        0.60434
H          9.54806        3.60978        0.77068
H         11.23126        7.84104        1.92958
H          6.64463        7.71533        0.38333
H          6.35424        6.08239        0.98552
H          6.14223        4.88789       -2.57299
H          8.32245        9.26775        0.05953
H          9.81343        9.69201        0.90321
H          8.63282        9.55305        3.12237
H          7.12638        9.08956        2.32221
H          7.12066       11.26828        1.05515
H          8.57115       11.77783        1.93691
H          7.23459       11.52982        3.97649
H          5.63063       12.92467        1.95607
H          7.02740       13.66467        2.77008
H          3.50089       13.21246        2.89557
H          2.03009       13.94160        4.76510
H          3.03735       14.48688        6.98621
H          5.49185       14.28769        7.31899
H          7.48164       13.80768        6.32083
