53

N          1.44335       -0.96860        0.70732
C          2.81097       -0.57372        0.37572
C          2.99654        0.92807        0.62201
C          4.43706        1.39270        0.32585
C          4.70713        2.80205        0.72945
C          5.36205        3.26011        1.84025
N          5.31240        4.63660        1.79646
C          4.65524        5.05851        0.69987
N          4.27286        3.94030        0.03342
C          3.51004        3.89490       -1.24330
C          3.98257        4.88352       -2.28124
C          3.08174        5.80344       -2.82671
C          3.52753        6.74291       -3.76079
C          4.86572        6.75745       -4.15076
C          5.78474        5.82488       -3.63490
C          5.32146        4.89196       -2.69921
C          7.21867        5.81661       -4.09495
C          4.44971        6.48904        0.34698
C          2.99666        6.99699        0.47467
C          2.87020        8.37111       -0.19070
C          1.43342        8.89947       -0.19768
S          1.31121       10.27382       -1.36132
O          2.07633       11.39710       -0.86286
O          1.52224        9.74006       -2.68543
O         -0.26466       10.64011       -1.25026
H          1.37244       -1.97789        0.82893
H          0.79182       -0.71693       -0.03642
H          3.12047       -0.81679       -0.66190
H          3.49202       -1.12900        1.03975
H          2.74165        1.14807        1.66926
H          2.27774        1.49106        0.00359
H          4.68372        1.24243       -0.73815
H          5.14474        0.76184        0.88449
H          5.85106        2.72019        2.64132
H          5.72574        5.26548        2.47845
H          2.44771        4.05079       -1.00969
H          3.61501        2.86580       -1.60926
H          2.03485        5.79998       -2.51645
H          2.83011        7.47724       -4.16464
H          5.20794        7.50336       -4.87025
H          6.02521        4.16679       -2.28052
H          7.30648        5.32783       -5.07719
H          7.86795        5.27283       -3.39701
H          7.60941        6.83627       -4.20818
H          4.79658        6.64351       -0.68514
H          5.11041        7.08941        0.99035
H          2.70537        7.03660        1.53565
H          2.30713        6.29217       -0.01305
H          3.22175        8.28475       -1.23028
H          3.52694        9.10051        0.30701
H          1.10499        9.26837        0.78333
H          0.71514        8.14900       -0.55808
H         -0.33443       11.49165       -0.77628
