62

C          2.80955       -9.95692        1.43405
C          4.22388       -9.50006        1.79865
C          4.24680       -8.30325        2.75634
C          5.66031       -7.84492        3.12797
C          5.68739       -6.65085        4.08748
C          7.10743       -6.21269        4.46070
C          7.13464       -5.03277        5.44069
C          8.53915       -4.62023        5.88238
N          9.28575       -4.02947        4.76571
C         10.55787       -3.64688        4.82878
N         11.10778       -2.95709        3.79637
C         10.36097       -2.21922        2.77767
C          9.68624       -3.11386        1.72219
O          8.90621       -4.01040        2.08631
N          9.96645       -2.84090        0.43625
C          9.30537       -3.49110       -0.70032
C          8.37723       -2.53016       -1.45010
C          7.70142       -3.18634       -2.65959
C          6.78848       -2.22165       -3.41988
N         11.30702       -3.91066        5.91953
C         12.66118       -3.42071        6.17204
C         12.96531       -3.51183        7.66959
C         14.38638       -3.07091        7.99222
F         15.30493       -3.85899        7.37151
F         14.61296       -1.79227        7.58475
F         14.61886       -3.13127        9.31902
H          2.82765      -10.81114        0.74391
H          2.24100       -9.14982        0.94855
H          2.24639      -10.26471        2.32752
H          4.77654       -9.23932        0.87982
H          4.77663      -10.33897        2.25450
H          3.69313       -8.56233        3.67592
H          3.69598       -7.46116        2.30103
H          6.21467       -7.58563        2.20859
H          6.20851       -8.68884        3.58273
H          5.12976       -6.90490        5.00568
H          5.15032       -5.80070        3.63212
H          7.65592       -5.96053        3.53761
H          7.64497       -7.06526        4.91270
H          6.57488       -5.29707        6.35119
H          6.61925       -4.15779        5.01053
H          9.06720       -5.51824        6.25734
H          8.49137       -3.88890        6.70526
H          8.90344       -4.08079        3.79013
H         12.11801       -2.94639        3.72741
H         11.05647       -1.49857        2.32878
H          9.56035       -1.64207        3.26741
H         10.59797       -2.07181        0.23282
H          8.75016       -4.34540       -0.29293
H         10.08470       -3.88522       -1.37085
H          8.95441       -1.65074       -1.78593
H          7.61309       -2.15421       -0.74989
H          7.12016       -4.06010       -2.32159
H          8.47441       -3.57940       -3.34097
H          5.98329       -1.83940       -2.77572
H          6.31885       -2.71608       -4.27987
H          7.34932       -1.35571       -3.80105
H         10.95393       -4.63709        6.53550
H         12.72252       -2.37237        5.84460
H         13.40507       -4.00495        5.60428
H         12.86343       -4.54671        8.03013
H         12.27916       -2.87673        8.24685
