66

C          1.42908        0.52247        1.40146
C          2.84496        0.84293        1.83423
O          3.69451        1.13885        0.67298
P          4.69802        0.06950        0.03912
O          4.85977       -1.17360        0.85005
O          4.28566       -0.10869       -1.48617
C          3.04078       -0.78991       -1.86627
C          3.14360       -1.16410       -3.32843
C          6.28187        0.95960       -0.16486
C          7.12023        0.79138        1.11866
C          8.57617        0.39944        0.80854
N          9.16782       -0.33538        1.95552
N          9.15084       -1.68487        2.06379
N          9.58957       -2.05612        3.24836
N          9.89911       -0.97185        3.92638
C          9.65193        0.09561        3.14774
C          9.86343        1.55332        3.47406
O          9.36717        2.40495        2.77705
C         10.80959        1.94422        4.66301
C         10.07103        2.41492        5.97805
C          9.21584        1.31795        6.70736
C         10.02327        0.25500        7.53551
O         10.32169        0.50103        8.66997
O         10.32589       -0.89223        6.91069
F          8.35958        1.94204        7.52951
F          8.45943        0.70194        5.70208
F         11.01065        2.88792        6.82017
F          9.24052        3.42685        5.61613
F         11.64915        0.91076        4.95581
F         11.54668        2.98602        4.22046
C          8.79809       -2.66809        1.01832
C          7.33492       -3.12466        1.12183
C          7.02489       -4.33673        0.22515
C          6.49218       -4.08669       -1.24105
C          7.35458       -3.27484       -2.28176
C          8.74995       -3.84161       -2.73541
F          8.66326       -5.11465       -3.11982
F          9.20569       -3.09416       -3.75108
F          9.64474       -3.74838       -1.71507
F          6.59851       -3.13567       -3.38943
F          7.58330       -2.01557       -1.76188
F          6.23183       -5.29728       -1.78938
F          5.32515       -3.39809       -1.12868
F          8.11736       -5.16718        0.13713
F          6.02695       -5.04115        0.82845
H          0.79239        0.41114        2.29031
H          1.38416       -0.41894        0.83749
H          1.01252        1.32891        0.78409
H          3.29908        0.01422        2.39441
H          2.88505        1.75586        2.44246
H          2.21055       -0.09334       -1.67878
H          2.91926       -1.67662       -1.22704
H          3.29238       -0.27440       -3.95353
H          2.21343       -1.65451       -3.64614
H          3.97440       -1.86072       -3.49884
H          6.10126        2.01208       -0.41487
H          6.76587        0.49889       -1.03795
H          6.67281       -0.01038        1.72648
H          7.11354        1.70554        1.72341
H          9.22399        1.26509        0.62782
H          8.63926       -0.27401       -0.05366
H         10.05052       -0.90229        5.96796
H          9.48566       -3.50195        1.20239
H          9.05613       -2.21919        0.05512
H          6.60076       -2.32583        0.91755
H          7.15203       -3.48125        2.14576
