85

C          2.32070        5.65582      -18.36143
C          3.79929        5.51100      -17.99181
C          4.02635        5.10618      -16.53040
C          5.50568        5.00278      -16.14599
C          5.74107        4.56267      -14.69711
C          7.22221        4.51588      -14.30763
C          7.47171        4.04957      -12.86905
C          8.94681        4.11482      -12.45910
C          9.21753        3.60324      -11.03926
C         10.69149        3.73578      -10.63289
C         10.98434        3.13975       -9.26692
O         12.37571        3.37035       -8.95471
C         12.82046        2.72246       -7.77487
C         14.31568        3.03356       -7.68794
N         14.47757        4.50190       -7.82098
C         15.30044        5.02695       -6.98172
C         15.95831        4.00631       -6.12957
C         15.04501        2.74683       -6.35233
C         15.76553        1.39723       -6.27455
C         14.83178        0.20083       -6.45676
C         15.51778       -1.13160       -6.10028
N         14.47668       -2.16056       -5.98974
O         13.68503        0.37331       -5.63575
C         17.44878        3.86294       -6.56847
C         18.33783        5.06206       -6.21995
P         20.08009        4.62636       -6.54445
O         20.49114        3.29975       -6.02079
O         20.16967        4.76218       -8.14920
C         20.92229        3.79693       -8.95081
C         22.36767        4.22157       -9.13110
O         20.80129        5.91269       -5.93145
C         22.25797        5.95953       -5.77701
C         22.58399        6.74858       -4.52686
H          2.19400        5.92441      -19.41931
H          1.83333        6.43777      -17.75990
H          1.77127        4.71805      -18.18945
H          4.32302        6.46170      -18.19011
H          4.27318        4.76372      -18.65086
H          3.52882        4.13861      -16.34018
H          3.52713        5.83550      -15.86807
H          5.99233        5.98022      -16.31281
H          6.01153        4.29588      -16.82724
H          5.28744        3.56827      -14.53946
H          5.20791        5.24830      -14.01506
H          7.66230        5.51952      -14.44542
H          7.76402        3.85235      -15.00446
H          7.10115        3.01645      -12.74928
H          6.87414        4.66667      -12.17532
H          9.29986        5.15756      -12.54453
H          9.55254        3.53215      -13.17490
H          8.90617        2.54678      -10.96790
H          8.58636        4.15614      -10.32237
H         10.97850        4.80064      -10.62684
H         11.33293        3.24037      -11.37955
H         10.79165        2.05115       -9.26017
H         10.35466        3.59934       -8.48216
H         12.66507        1.63122       -7.81081
H         12.29947        3.10408       -6.87503
H         14.82125        2.58259       -8.55944
H         13.92392        4.99811       -8.52721
H         15.49375        6.10204       -6.98735
H         15.95262        4.32653       -5.07569
H         14.28162        2.75666       -5.55922
H         16.24095        1.32247       -5.28300
H         16.56751        1.33151       -7.02667
H         14.52141        0.14618       -7.52609
H         15.99509       -1.02441       -5.11454
H         16.31113       -1.36052       -6.83378
H         14.27914       -2.60355       -6.88698
H         14.74075       -2.89696       -5.33886
H         13.37966       -0.55278       -5.48167
H         17.50089        3.65105       -7.64823
H         17.84740        2.97627       -6.05594
H         18.27037        5.30853       -5.14955
H         18.09617        5.97035       -6.79159
H         20.39213        3.76976       -9.91187
H         20.84913        2.81188       -8.46862
H         22.43232        5.24371       -9.52739
H         22.86372        3.54693       -9.84304
H         22.92154        4.17014       -8.18454
H         22.66393        6.43800       -6.68071
H         22.64091        4.93040       -5.71137
H         22.13822        7.75100       -4.56564
H         23.67310        6.86252       -4.43905
H         22.21892        6.23347       -3.62918
