66

C          0.52118        0.07780       -0.98430
C          1.99042        0.12319       -0.55698
C          2.94495       -0.19549       -1.71790
C          4.39127       -0.13942       -1.27735
O          5.22735       -0.45295       -2.46632
C          6.50610       -0.20527       -2.34831
O          7.17773        0.18629       -1.43772
N          7.13278       -0.45946       -3.68523
N          6.54505        0.04143       -4.81643
C          7.43355       -0.10238       -5.77244
N          8.57309       -0.70072       -5.26157
C          8.37355       -0.93082       -3.93756
C          9.27277       -1.61738       -3.07023
N          9.02284       -2.18165       -1.91311
N         10.17104       -2.78378       -1.50668
C         11.08089       -2.55807       -2.44851
O         10.57204       -1.81971       -3.49323
S         12.70287       -3.10587       -2.39185
C         13.41995       -2.44383       -3.94815
C         14.88094       -2.88518       -4.00647
C          7.23977        0.32395       -7.18372
C          7.35203       -0.85306       -8.17386
C          7.14511       -0.46564       -9.64896
C          5.71364       -0.70479      -10.26785
C          4.44062        0.01790       -9.67233
C          4.27055        1.59095       -9.68381
C          4.30197        2.43461      -11.02104
C          3.27501        2.17077      -12.19421
C          1.71267        2.29862      -11.97274
C          1.12494        3.66100      -11.44678
F          1.59212        4.69665      -12.16266
F         -0.21216        3.61560      -11.56262
F          1.43322        3.84933      -10.14941
F          1.16469        2.07363      -13.19281
F          1.30574        1.31617      -11.12858
F          3.62271        3.04725      -13.16901
F          3.48748        0.91056      -12.65592
F          4.16272        3.72926      -10.63330
F          5.53889        2.28773      -11.56156
F          3.09719        1.83231       -9.05261
F          5.27134        2.11089       -8.90838
F          3.36804       -0.52312      -10.28694
F          4.38223       -0.32928       -8.34251
F          5.77982       -0.44577      -11.59137
F          5.45786       -2.03885      -10.10196
F          7.52218        0.82896       -9.87711
F          7.97004       -1.25935      -10.40528
H         -0.14141        0.30860       -0.14037
H          0.24472       -0.91679       -1.36280
H          0.31332        0.80762       -1.78010
H          2.15949       -0.59162        0.26491
H          2.22686        1.12017       -0.15025
H          2.78986        0.52303       -2.53843
H          2.72476       -1.19648       -2.12122
H          4.63836       -0.88723       -0.51065
H          4.69352        0.85347       -0.91683
H          9.41499       -0.95965       -5.77034
H         13.32670       -1.35037       -3.92770
H         12.84213       -2.84584       -4.79032
H         15.45549       -2.50372       -3.15234
H         15.33817       -2.48737       -4.92180
H         14.97492       -3.97881       -4.03095
H          7.97952        1.09941       -7.43438
H          6.25319        0.79573       -7.22537
H          6.64874       -1.65478       -7.91466
H          8.36242       -1.28753       -8.14421
