61

C         11.96037        1.16019        5.86925
C         12.32196        2.19172        4.79724
C         11.88011        1.78272        3.38635
C         12.27497        2.80063        2.31149
C         11.79268        2.43303        0.90257
C         12.24367        3.45698       -0.14910
C         11.66386        3.15512       -1.53288
S         12.37744        4.37967       -2.70654
C         11.26283        4.26345       -4.00852
N         10.20400        3.50163       -4.18964
N          9.65054        3.88028       -5.40921
C         10.41928        4.81117       -5.86180
O         11.46477        5.14390       -5.07680
N         10.17364        5.52039       -7.09759
C         10.02303        7.04504       -6.88806
C          9.43922        7.62860       -8.14935
C          8.08826        8.21925       -8.15004
O          8.30210        6.87572       -8.62900
C         11.03507        5.08062       -8.28258
C         12.40681        5.75884       -8.34115
O         12.85973        6.46271       -7.46133
O         12.96361        5.44830       -9.50677
C         14.30555        6.00360       -9.79364
C         15.39978        5.01690       -9.42667
C         16.78028        5.56200       -9.82157
C         17.92243        4.58109       -9.52986
C         19.29390        5.13373       -9.92498
H         12.27653        1.49190        6.86759
H         12.44540        0.19245        5.67219
H         10.87488        0.98374        5.90648
H         13.41218        2.36067        4.80116
H         11.86542        3.16367        5.05066
H         10.78503        1.64115        3.37534
H         12.31477        0.79868        3.13765
H         13.37329        2.91317        2.30267
H         11.87168        3.79216        2.58245
H         10.69143        2.36005        0.89847
H         12.16855        1.43275        0.62789
H         13.34568        3.46844       -0.19646
H         11.93226        4.46770        0.16059
H         10.57203        3.26282       -1.55931
H         11.93159        2.15230       -1.89082
H          9.21259        5.22331       -7.35959
H         11.01008        7.44223       -6.63419
H          9.33746        7.13262       -6.03584
H         10.14509        7.93538       -8.92796
H          7.83378        8.94419       -8.92652
H          7.53196        8.29750       -7.21206
H         10.46103        5.29796       -9.19174
H         11.14577        3.99157       -8.20089
H         14.40142        6.95190       -9.24933
H         14.27197        6.19512      -10.87327
H         15.21207        4.06033       -9.93973
H         15.37021        4.81943       -8.34294
H         16.96804        6.51050       -9.28969
H         16.78272        5.80930      -10.89746
H         17.73353        3.63608      -10.06599
H         17.91934        4.32893       -8.45594
H         19.33873        5.36309      -10.99998
H         20.09220        4.41221       -9.70693
H         19.52523        6.05994       -9.37840
