74

C          7.53409       -4.76796        2.10362
C          6.83524       -3.57763        1.48166
O          7.16880       -2.40291        2.25459
C          6.57897       -1.23011        1.75910
C          6.98570       -0.13844        2.75515
S          6.45491        1.50434        2.19154
C          4.67572        1.53371        2.64865
C          3.95098        2.73455        2.04022
C          3.75774        2.63112        0.52254
S          3.11304        4.20322       -0.09955
O          1.75528        4.37385        0.36719
O          4.13441        5.19343        0.13130
O          3.08373        3.90146       -1.68750
C          7.20194        2.64259        3.41860
C          8.71955        2.74793        3.27225
C          9.28139        3.80709        4.23716
C         10.81353        3.87427        4.21013
C         11.38071        4.90353        5.19434
C         12.91294        4.93440        5.23253
C         13.46903        5.92349        6.26254
C         14.99889        5.92977        6.35212
C         15.53504        6.88216        7.42608
C         17.06198        6.87581        7.55477
C         17.57169        7.80986        8.65591
C         19.10046        7.79494        8.79261
N         19.58744        8.66421        9.85354
C         19.72370        8.30592       11.17779
C         20.08687        9.43140       11.89576
C         20.16427       10.51307       10.97467
C         19.84638       10.01199        9.72485
H          7.28729       -5.67818        1.54096
H          7.21550       -4.91190        3.14429
H          8.62409       -4.63884        2.08422
H          5.73695       -3.70917        1.48498
H          7.15696       -3.42376        0.43507
H          5.47492       -1.32939        1.70179
H          6.94411       -0.97936        0.74193
H          8.08205       -0.08482        2.80936
H          6.58484       -0.32360        3.76165
H          4.62795        1.52971        3.74652
H          4.27531        0.57964        2.27702
H          4.47320        3.67133        2.28819
H          2.96918        2.79942        2.53287
H          3.03948        1.84724        0.24687
H          4.69978        2.46519       -0.01919
H          2.14855        3.86745       -1.97002
H          6.89134        2.29835        4.41638
H          6.71169        3.60490        3.20495
H          8.98185        3.00957        2.23487
H          9.19224        1.77769        3.49150
H          8.94608        3.58064        5.26374
H          8.85891        4.79354        3.98319
H         11.15459        4.11013        3.18760
H         11.22438        2.87773        4.44835
H         10.99921        4.68388        6.20690
H         10.99841        5.90650        4.93753
H         13.30249        5.18491        4.23053
H         13.29078        3.92214        5.46038
H         13.05087        5.68273        7.25584
H         13.11185        6.94058        6.02432
H         15.42501        6.20211        5.37073
H         15.35516        4.90594        6.56285
H         15.08966        6.61614        8.40067
H         15.19223        7.90886        7.20937
H         17.51302        7.16066        6.58791
H         17.40603        5.84596        7.75701
H         17.12866        7.52648        9.62451
H         17.24368        8.84309        8.45714
H         19.57301        8.10938        7.84926
H         19.45544        6.77384        9.00086
H         19.56102        7.28019       11.49346
H         20.28934        9.46640       12.96147
H         20.43840       11.53972       11.19553
H         19.79265       10.49623        8.75486
