49

C          3.59867       -3.60457        0.33247
C          4.82946       -3.62403        1.24223
C          5.49083       -2.24616        1.37293
C          6.68859       -2.25853        2.31742
O          7.24802       -0.94326        2.54159
C          6.55512       -0.12109        3.42414
N          6.78018       -0.50168        4.84914
C          5.81182       -0.40036        5.78854
N          6.08233       -0.00248        7.04339
C          4.88361       -0.00923        7.88599
C          3.76514       -0.34451        6.87382
N          4.49684       -0.68591        5.63352
C          3.90179       -1.66293        4.71169
C          2.57916       -1.19047        4.09573
C          2.65747        0.12973        3.32603
C          8.19512       -0.63308        5.25388
C          8.99482        0.66495        5.41594
O          8.41636        1.37779        6.53510
C         10.47193        0.36460        5.64579
H          3.14959       -4.60254        0.24735
H          3.85689       -3.26870       -0.68169
H          2.82575       -2.92286        0.71899
H          5.56508       -4.34852        0.85660
H          4.54360       -3.99190        2.24331
H          4.73659       -1.52084        1.72273
H          5.82064       -1.88400        0.38714
H          7.51581       -2.83739        1.88567
H          6.44007       -2.72639        3.28849
H          5.47119       -0.08156        3.25233
H          6.96790        0.88768        3.26937
H          6.90597        0.59042        7.21004
H          4.73893        0.97355        8.35131
H          4.97129       -0.75992        8.68430
H          3.08395        0.50012        6.69638
H          3.16468       -1.20755        7.19187
H          3.73512       -2.60018        5.27139
H          4.63577       -1.88794        3.93369
H          1.81474       -1.11662        4.88536
H          2.23732       -1.99872        3.43138
H          3.02461        0.95147        3.95811
H          1.66604        0.41979        2.95669
H          3.31788        0.05750        2.44959
H          8.67475       -1.23286        4.46991
H          8.22984       -1.20825        6.18905
H          8.88196        1.28139        4.50585
H          8.95934        2.15693        6.73406
H         10.61385       -0.26446        6.53553
H         11.03720        1.29607        5.78878
H         10.90695       -0.14833        4.77706
