95

C          1.44293       -3.30561        1.51094
C          1.99173       -3.14577        0.09156
C          3.30296       -3.90934       -0.13426
C          3.85206       -3.81237       -1.56558
N          4.12868       -2.43124       -1.99456
C          3.21913       -1.79838       -2.79018
O          2.22873       -2.36839       -3.26260
C          3.45644       -0.30666       -3.08457
C          2.19653        0.34291       -3.68391
C          1.88426       -0.10319       -5.11671
N          2.68821        0.65327       -6.09452
C          3.34147        1.79493       -5.84456
N          4.07524        2.39631       -6.80261
C          4.27022        1.85606       -8.14852
C          5.24651        2.73690       -8.93120
C          5.47450        2.17996      -10.34000
S          6.59721        3.30071      -11.22076
C          6.79199        2.46867      -12.77074
S          6.15761        0.99940      -13.13940
N          7.58073        3.21907      -13.64904
C          8.00549        4.54896      -13.51957
C          8.77945        4.79604      -14.61678
N          8.86723        3.66863      -15.42602
C          8.14949        2.75046      -14.84042
N          3.29673        2.34490       -4.60870
C          2.26900        1.87213       -3.66175
C          4.16852        3.45229       -4.27931
O          3.77114        4.59830       -5.01403
C          4.41219        5.81008       -4.54594
C          3.74133        7.01245       -5.18693
C          4.22736        8.32797       -4.56301
C          3.45534        9.56127       -5.04687
C          3.81439       10.82963       -4.26505
C          2.97701       12.05529       -4.64546
C          3.23160       13.26379       -3.73832
C          2.35784       14.48031       -4.06130
C          2.54663       15.64138       -3.07975
C          1.66077       16.85675       -3.37525
C          1.83681       17.99225       -2.36354
C          5.27219       -1.76109       -1.38587
H          0.51043       -2.74089        1.64486
H          2.16035       -2.94674        2.26389
H          1.22619       -4.35929        1.73890
H          2.15140       -2.07372       -0.11695
H          1.24410       -3.48372       -0.64329
H          3.15078       -4.97974        0.08066
H          4.06346       -3.56680        0.58886
H          3.12933       -4.22287       -2.28071
H          4.78838       -4.38431       -1.65533
H          4.32588       -0.19740       -3.75531
H          3.72408        0.22056       -2.15605
H          1.33792        0.03293       -3.07208
H          0.81988        0.06324       -5.34199
H          2.08943       -1.17347       -5.23125
H          2.64165        0.35303       -7.06224
H          4.20919        3.40093       -6.65968
H          3.30812        1.80144       -8.69164
H          4.67281        0.83331       -8.06678
H          6.20150        2.79364       -8.38640
H          4.84203        3.76082       -8.99102
H          4.53797        2.10813      -10.91162
H          5.93179        1.18068      -10.32107
H          7.68963        5.18003      -12.69794
H          9.27760        5.72255      -14.88509
H          7.98626        1.73067      -15.17228
H          1.29364        2.31696       -3.91726
H          2.55217        2.23815       -2.66757
H          5.21668        3.17971       -4.51332
H          4.08507        3.63152       -3.19451
H          5.49286        5.77239       -4.77670
H          4.30450        5.85610       -3.44609
H          2.65328        6.91679       -5.04347
H          3.92129        7.00915       -6.27397
H          5.30480        8.46309       -4.75796
H          4.12436        8.25924       -3.46577
H          2.37282        9.37069       -4.94261
H          3.63379        9.71754       -6.12460
H          4.88646       11.05732       -4.39697
H          3.68051       10.62905       -3.18712
H          1.90614       11.78928       -4.59706
H          3.17242       12.32928       -5.69679
H          4.29625       13.55060       -3.79543
H          3.05766       12.96484       -2.68927
H          1.29644       14.17454       -4.06002
H          2.57033       14.82567       -5.08826
H          3.60585       15.95428       -3.08034
H          2.34059       15.28460       -2.05473
H          0.60422       16.53882       -3.39139
H          1.87877       17.22821       -4.39084
H          1.59207       17.65886       -1.34387
H          1.18606       18.84604       -2.59751
H          2.87391       18.35926       -2.35012
H          6.02232       -2.51861       -1.12819
H          5.00586       -1.22172       -0.46149
H          5.74273       -1.05835       -2.08418
