54

O          2.96107        0.20568        1.22380
C          3.72977        0.32079        0.02461
C          2.77740        0.65634       -1.12728
N          1.99145        1.86997       -0.79012
C          0.78339        1.87991       -0.16539
N          0.61438        2.69443        0.89341
C         -0.66608        3.11188        1.50990
C         -1.82686        2.40778        0.79698
C         -1.39450        1.01891        0.33468
N         -0.25289        1.13662       -0.59079
C         -0.34325        0.54314       -1.93733
C         -1.49266        1.08557       -2.80157
C         -1.39848        2.56360       -3.19778
C         -0.19754        2.90141       -4.07626
O          0.71616        2.14384       -4.31352
O         -0.17695        4.16177       -4.58685
C         -0.76607        4.64668        1.49417
C         -2.02867        5.25283        2.14014
C         -2.12359        4.93080        3.64477
C         -3.41238        5.41529        4.31560
C         -2.04698        6.76423        1.87013
C          3.53296        0.86158       -2.43803
H          3.51575       -0.19431        1.91089
H          4.24919       -0.62149       -0.21806
H          4.49581        1.11521        0.11751
H          2.06288       -0.17229       -1.21748
H          2.56829        2.68219       -0.57867
H          1.46211        2.97258        1.37851
H         -0.62772        2.75439        2.55138
H         -2.15320        2.99648       -0.07421
H         -2.68468        2.33757        1.47815
H         -2.20311        0.50137       -0.19201
H         -1.09899        0.38998        1.19001
H         -0.46203       -0.54556       -1.82421
H          0.59500        0.73236       -2.46360
H         -2.46426        0.91005       -2.31640
H         -1.49673        0.47233       -3.71475
H         -1.35118        3.21694       -2.30940
H         -2.31786        2.85477       -3.73099
H         -0.99471        4.64062       -4.36206
H         -0.70527        4.97462        0.44225
H          0.12270        5.06304        2.00080
H         -2.91529        4.81600        1.64443
H         -1.24994        5.37209        4.15588
H         -2.04537        3.84108        3.79634
H         -3.49090        6.51012        4.31700
H         -3.45500        5.08448        5.36141
H         -4.30179        5.01647        3.80522
H         -1.20022        7.26206        2.36769
H         -2.96967        7.23026        2.23634
H         -1.97518        6.97752        0.79406
H          4.24903        1.69229       -2.35123
H          2.84581        1.09132       -3.26119
H          4.10091       -0.04174       -2.69600
