81

C          0.85464        0.07515        0.27771
C          2.35419       -0.22271        0.20423
C          3.10693        0.68727       -0.77278
C          4.60453        0.37951       -0.87155
C          5.34849        1.27984       -1.86252
C          6.83621        0.94248       -2.01036
C          7.54627        1.82604       -3.03977
C          9.02027        1.47018       -3.26917
C          9.63964        2.33364       -4.37455
C         11.07760        1.98015       -4.71096
O         11.45962        2.82291       -5.82654
C         12.75072        2.56687       -6.33897
C         12.91733        3.34357       -7.60750
N         13.20413        2.78966       -8.80101
N         13.34829        3.74899       -9.68600
N         13.12630        4.90693       -9.06349
N         12.85458        4.68915       -7.74200
C         12.39728        5.70024       -6.79109
C         10.87642        6.13720       -7.01565
N          9.94302        5.06083       -7.18753
N         10.54698        6.78157       -5.74995
N         10.82051        6.91653       -8.25920
C         13.23635        6.15973       -9.66812
N         13.80004        7.21418       -9.16343
N         13.57923        8.22110      -10.07758
C         12.91564        7.68005      -11.08728
O         12.66579        6.33258      -10.88275
S         12.42249        8.48282      -12.52255
C         11.30197        7.25168      -13.30351
C         10.70257        7.89085      -14.55863
C          9.71527        6.94141      -15.25320
C          9.08858        7.55089      -16.51308
C          8.08203        6.62053      -17.19869
C          7.44693        7.22704      -18.45568
C          6.43616        6.29616      -19.13051
H          0.34609       -0.58718        0.99152
H          0.37230       -0.06089       -0.70204
H          0.66699        1.11190        0.59525
H          2.50727       -1.27488       -0.09017
H          2.80033       -0.12305        1.20836
H          2.96720        1.74078       -0.47159
H          2.65132        0.59915       -1.77531
H          4.73992       -0.67560       -1.16774
H          5.06549        0.47327        0.12730
H          5.23987        2.33468       -1.55399
H          4.86329        1.20485       -2.85212
H          6.94082       -0.11618       -2.30512
H          7.33718        1.03595       -1.03140
H          7.47132        2.88310       -2.73026
H          7.00969        1.75568       -4.00237
H          9.10142        0.40455       -3.54354
H          9.58660        1.59218       -2.33064
H          9.59353        3.39682       -4.08446
H          9.03765        2.22518       -5.29243
H         11.17434        0.92123       -5.01137
H         11.75899        2.16335       -3.86038
H         12.90001        1.50438       -6.60080
H         13.54868        2.85456       -5.62276
H         13.07788        6.55905       -6.85023
H         12.46677        5.23303       -5.80458
H         10.02853        4.35045       -6.46214
H         10.01484        4.62668       -8.10584
H         11.05301        7.65705       -5.61177
H          9.54515        6.97472       -5.72083
H          9.83817        7.10706       -8.46936
H         11.28802        7.81787       -8.14728
H         10.52320        6.98963      -12.57431
H         11.88636        6.35461      -13.54739
H         11.50959        8.16468      -15.25741
H         10.18672        8.82651      -14.28825
H          8.91555        6.66468      -14.54454
H         10.23143        6.00243      -15.51663
H          9.88777        7.81697      -17.22615
H          8.58899        8.49915      -16.24917
H          7.28548        6.35239      -16.48216
H          8.58128        5.67205      -17.46416
H          8.24251        7.49052      -19.17271
H          6.95351        8.17711      -18.18973
H          6.90735        5.35224      -19.44247
H          5.99956        6.75952      -20.02543
H          5.60869        6.04348      -18.45092
