89

C          1.26887       -0.63885        1.88229
C          2.70006       -0.25046        1.50263
C          3.17519       -0.88254        0.18922
C          4.59741       -0.47535       -0.20912
C          5.08032       -1.11797       -1.51363
C          6.47199       -0.64701       -1.94844
C          6.95716       -1.28411       -3.25477
C          8.30156       -0.73248       -3.73958
C          8.77026       -1.33825       -5.06719
C         10.06572       -0.71514       -5.59596
C         10.50801       -1.28821       -6.95105
C         11.79237       -0.61012       -7.46760
C         12.46191       -0.96275       -8.85436
C         12.37501       -2.47591       -9.14157
N         10.93558       -2.89817       -9.43000
C         10.27684       -2.17956      -10.58346
C         10.36135       -0.67802      -10.35683
C         11.80367       -0.20661      -10.07603
C         12.65724       -0.26791      -11.36465
C         12.37125        0.87170      -12.34906
C         13.14747        0.72671      -13.66131
C         12.88189        1.85514      -14.66217
C         13.61710        1.67162      -15.99322
C         13.34387        2.78952      -17.00546
C         14.06024        2.58228      -18.34188
C         13.92454       -0.45847       -8.71013
C         14.10415        0.93184       -8.60578
C         15.35366        1.52686       -8.45055
C         16.48740        0.72013       -8.39058
C         16.35418       -0.66344       -8.47349
C         15.09114       -1.25686       -8.62142
O         14.93761       -2.62243       -8.68398
C         16.10384       -3.45106       -8.62539
H          0.96244       -0.17178        2.82819
H          1.16777       -1.72782        2.00172
H          0.55167       -0.32407        1.10947
H          3.38939       -0.53929        2.31382
H          2.77388        0.84747        1.42266
H          2.47697       -0.60613       -0.62093
H          3.11782       -1.98251        0.27275
H          5.29514       -0.73569        0.60620
H          4.64543        0.62368       -0.30650
H          4.35632       -0.89720       -2.31774
H          5.08117       -2.21640       -1.40228
H          7.19979       -0.85707       -1.14546
H          6.46068        0.45092       -2.06460
H          6.19693       -1.12315       -4.04005
H          7.03068       -2.37851       -3.12588
H          9.07174       -0.90145       -2.96753
H          8.22244        0.36280       -3.85174
H          7.97270       -1.21103       -5.82143
H          8.90419       -2.42814       -4.94657
H         10.87797       -0.85369       -4.86321
H          9.93245        0.37453       -5.70180
H          9.65833       -1.16586       -7.64670
H         10.67068       -2.37503       -6.79813
H         12.56373       -0.78310       -6.70229
H         11.62295        0.47727       -7.46549
H         12.69901       -3.08829       -8.29440
H         12.95838       -2.77048      -10.01988
H         10.38524       -2.72794       -8.57195
H         10.92426       -3.91068       -9.59783
H          9.24247       -2.54216      -10.64324
H         10.80803       -2.49419      -11.49104
H          9.67974       -0.38166       -9.54755
H          9.98010       -0.18430      -11.26163
H         11.72749        0.85001       -9.78106
H         12.51356       -1.23056      -11.88615
H         13.72256       -0.23735      -11.09723
H         12.62813        1.83067      -11.86780
H         11.29286        0.92817      -12.57933
H         12.88916       -0.24061      -14.12861
H         14.22786        0.67547      -13.44177
H         13.17135        2.82039      -14.21140
H         11.79637        1.92496      -14.85323
H         13.32919        0.70171      -16.43681
H         14.70337        1.60552      -15.80605
H         13.64636        3.75628      -16.56895
H         12.25646        2.86330      -17.17698
H         15.15133        2.54252      -18.20845
H         13.84251        3.39680      -19.04556
H         13.75129        1.64033      -18.81847
H         13.23346        1.58589       -8.65412
H         15.43482        2.61082       -8.37884
H         17.47847        1.15883       -8.27502
H         17.24388       -1.28699       -8.41743
H         16.63586       -3.33047       -7.66965
H         16.78840       -3.24213       -9.46138
H         15.73701       -4.47990       -8.70666
