56

C          5.59305        4.90986       -4.81503
C          4.63681        4.67794       -3.66286
O          5.19628        3.66698       -2.80681
C          4.40621        3.40172       -1.67021
C          4.92527        2.10544       -1.02093
C          6.41123        2.01803       -0.92522
N          7.12595        1.24083       -1.70848
N          8.40004        1.44782       -1.30240
C          8.51816        2.31895       -0.29622
N          7.23712        2.70330       -0.03255
C          6.69246        3.57481        1.03750
C          7.66790        4.54044        1.71389
O          8.34537        5.37821        0.81137
Si         7.83758        6.90656        0.25517
C          9.39915        7.70491       -0.38654
C          6.57892        6.64632       -1.11763
C          7.07945        7.86380        1.67878
C          9.80585        2.69860        0.35087
C         11.09011        2.28655       -0.41080
C         11.24520        2.95468       -1.80202
C         11.06869        4.47612       -1.83571
C         12.29623        2.57857        0.49626
H          5.18068        5.66230       -5.50003
H          5.75538        3.98320       -5.38097
H          6.56495        5.27346       -4.45427
H          3.65036        4.33574       -4.02701
H          4.47674        5.60685       -3.08484
H          3.34394        3.24810       -1.93760
H          4.43626        4.25452       -0.96153
H          4.62572        1.24976       -1.63925
H          4.46152        1.97562       -0.03125
H          9.16329        0.96688       -1.77060
H          6.25042        2.91969        1.80459
H          5.88161        4.14503        0.56996
H          8.41354        3.98453        2.30395
H          7.06232        5.10617        2.44458
H          9.81978        7.15746       -1.23978
H         10.16533        7.76084        0.39856
H          9.18589        8.72974       -0.72214
H          6.92195        5.88734       -1.83498
H          6.41108        7.58113       -1.67163
H          5.60378        6.32900       -0.72092
H          7.77467        7.95283        2.52501
H          6.14495        7.41471        2.04442
H          6.83329        8.88229        1.34444
H          9.82344        2.23753        1.35296
H          9.79397        3.78830        0.50716
H         11.07276        1.19131       -0.56473
H         10.54526        2.51007       -2.52930
H         12.24610        2.68996       -2.17514
H         10.04098        4.77611       -1.58628
H         11.28447        4.86116       -2.84057
H         11.74386        4.99067       -1.13816
H         12.37924        3.64962        0.72954
H         13.22859        2.26926        0.00680
H         12.22308        2.03528        1.44857
