66

F          1.41033        0.15091        0.29301
C          2.72528       -0.21096        0.42910
C          3.48745        0.87668        1.31655
C          2.58956        1.69433        2.31846
C          3.30899        2.42392        3.53862
C          4.47402        3.42638        3.20381
C          4.94012        4.43233        4.33988
C          5.45550        3.90953        5.74039
C          6.70729        2.95719        5.78531
F          7.73676        3.46841        5.09517
F          7.07349        2.79620        7.06699
F          6.40839        1.73932        5.27830
F          5.78559        5.02048        6.44272
F          4.43244        3.28056        6.37777
F          5.94196        5.15821        3.78061
F          3.90440        5.26379        4.60920
F          5.56075        2.71659        2.80017
F          4.06204        4.21085        2.17508
F          2.32059        3.09748        4.17748
F          3.77590        1.45377        4.37090
F          1.87094        2.59458        1.62209
F          1.71562        0.82531        2.92710
F          4.45529        0.21091        2.02408
F          4.09528        1.76140        0.49899
C          2.84082       -1.66430        0.89626
C          2.16160       -1.98287        2.24749
C          2.37379       -3.39760        2.66131
N          1.77756       -4.40841        2.10426
C          2.08813       -5.72463        2.69716
C          3.28266       -5.39874        3.60948
C          3.27283       -3.84439        3.78796
C          2.59612       -3.41544        5.14529
C          1.22352       -3.99982        5.39015
C          0.07273       -3.34413        4.92122
C         -1.19568       -3.89883        5.10474
C         -1.33377       -5.12086        5.76842
C         -0.20150       -5.76841        6.26987
C          1.06522       -5.20855        6.08698
C          4.64799       -3.19068        3.57351
C          5.16675       -2.21478        4.43570
C          6.39932       -1.61288        4.16865
C          7.12531       -1.96129        3.02936
C          6.61649       -2.92681        2.15679
C          5.39075       -3.53417        2.42762
F          3.28782       -0.16022       -0.81352
H          3.90743       -1.91413        0.93877
H          2.38816       -2.25314        0.08528
H          1.08225       -1.77979        2.17736
H          2.57492       -1.34620        3.03670
H          1.08765       -4.30394        1.35850
H          2.31496       -6.44071        1.89689
H          1.20073       -6.07223        3.24536
H          4.22039       -5.71796        3.14239
H          3.20081       -5.91445        4.57065
H          2.53864       -2.31854        5.18736
H          3.29296       -3.72973        5.93611
H          0.16131       -2.36652        4.44114
H         -2.07832       -3.36685        4.74780
H         -2.32297       -5.55387        5.91785
H         -0.30577       -6.70417        6.81961
H          1.93837       -5.70807        6.51220
H          4.62625       -1.91424        5.33153
H          6.78950       -0.86608        4.85951
H          8.08385       -1.48562        2.82150
H          7.17436       -3.20952        1.26371
H          5.01897       -4.29009        1.73188
