106

C          0.59464        0.39308        0.24753
C          2.12333        0.35641        0.18622
C          2.73790       -0.70117        1.10846
C          4.26787       -0.75188        1.05774
C          4.87450       -1.81916        1.97362
C          6.40465       -1.87510        1.92848
C          7.00303       -2.95697        2.83279
C          8.53345       -3.01656        2.79606
C          9.12175       -4.11295        3.68924
C         10.65280       -4.17031        3.67532
C         11.22495       -5.28290        4.55923
C         12.75607       -5.32714        4.59395
C         13.30593       -6.46398        5.46133
C         14.83360       -6.47496        5.58192
C         15.35572       -7.63519        6.43573
C         16.87259       -7.60923        6.66050
C         17.35547       -8.78993        7.51141
C         18.84028       -8.68633        7.87867
N         19.31601       -9.80534        8.71519
C         20.12911      -10.90135        8.12982
C         21.61257      -10.74062        8.49227
C         22.53016      -11.82580        7.90862
C         22.61920      -11.92437        6.37088
C         23.15496      -10.62730        5.73665
C         23.18625      -10.62468        4.19528
C         23.51965       -9.27330        3.63002
C         24.59709       -8.91692        2.90616
C         25.71011       -9.84881        2.50686
C         24.76307       -7.50150        2.41810
C         23.47799      -13.14289        6.00338
O         19.55015      -12.15659        8.47028
C         19.27923      -12.40446        9.84503
N         19.19176      -11.14110       10.58968
C         19.00223       -9.94644       10.00744
N         18.52109       -8.92176       10.74135
C         20.26853      -13.37975       10.50131
C         19.71979      -14.07849       11.77103
C         20.44622      -13.78469       13.07044
Br        20.19859      -11.91832       13.71367
H          0.18063        1.15742       -0.42459
H          0.24306        0.61900        1.26540
H          0.16184       -0.57587       -0.04307
H          2.52799        1.34791        0.45110
H          2.44726        0.16462       -0.85075
H          2.33137       -1.69329        0.84323
H          2.41337       -0.51012        2.14677
H          4.67504        0.23786        1.33001
H          4.59207       -0.93680        0.01844
H          4.46644       -2.80783        1.69851
H          4.54742       -1.63627        3.01249
H          6.81454       -0.89076        2.21565
H          6.73273       -2.04757        0.88825
H          6.59376       -3.94043        2.54142
H          6.67057       -2.78779        3.87223
H          8.94375       -2.03755        3.10040
H          8.86777       -3.17466        1.75564
H          8.71811       -5.09180        3.37545
H          8.77440       -3.96209        4.72663
H         11.05654       -3.19679        4.00498
H         11.00522       -4.30926        2.63832
H         10.84007       -6.25717        4.20994
H         10.84459       -5.15989        5.58867
H         13.13917       -4.36200        4.96955
H         13.14557       -5.42911        3.56606
H         12.96466       -7.43085        5.05173
H         12.86688       -6.39256        6.47229
H         15.17034       -5.51827        6.01832
H         15.28469       -6.52685        4.57602
H         15.07201       -8.59191        5.96463
H         14.84978       -7.61824        7.41720
H         17.14807       -6.66011        7.15328
H         17.39505       -7.61212        5.68889
H         17.18396       -9.73756        6.97681
H         16.75824       -8.84135        8.43666
H         19.05695       -7.72887        8.38071
H         19.46762       -8.68807        6.97681
H         19.99410      -10.83643        7.04200
H         21.71691      -10.71813        9.58813
H         21.92267       -9.74526        8.13738
H         22.21812      -12.80595        8.30117
H         23.54401      -11.64889        8.30475
H         21.60405      -12.10533        5.96841
H         24.17197      -10.43016        6.11852
H         22.54183       -9.76863        6.06194
H         22.19099      -10.93635        3.82632
H         23.89458      -11.38252        3.83488
H         22.78568       -8.48780        3.84914
H         25.59092      -10.86845        2.89060
H         26.67916       -9.46327        2.86213
H         25.78831       -9.90751        1.40925
H         23.92872       -6.85978        2.72866
H         24.83096       -7.46997        1.31864
H         25.69896       -7.05992        2.79750
H         24.51662      -13.00433        6.34210
H         23.49915      -13.31810        4.92066
H         23.09089      -14.05665        6.47670
H         18.27900      -12.87612        9.84287
H         19.31219      -11.19605       11.61005
H         18.14327       -9.08783       11.66526
H         18.60515       -7.96466       10.42556
H         21.21936      -12.86702       10.70916
H         20.47508      -14.13315        9.72959
H         19.79471      -15.17032       11.63705
H         18.64348      -13.87920       11.89776
H         21.53246      -13.89843       12.98898
H         20.06941      -14.39281       13.89803
