84

C          2.92256       -2.18099       -1.08889
C          3.63553       -1.00832       -0.41347
C          4.23684       -0.01766       -1.41591
C          4.94757        1.15950       -0.74108
C          5.60161        2.12235       -1.74042
C          6.32699        3.25592       -1.02388
N          7.05382        4.17162       -2.00626
C          6.49724        5.59549       -2.12919
C          5.01357        5.61539       -2.50951
C          4.36923        6.97769       -2.17635
C          3.18762        7.29194       -3.09730
S          2.52175        8.96041       -2.86751
C          3.68328        9.96524       -3.80738
S          5.02994        9.32048       -4.57238
N          3.35202       11.27564       -3.83681
C          4.20728       12.23742       -4.56557
C          3.95742       12.29587       -6.07850
C          2.57206       12.79353       -6.50331
C          2.43230       12.89634       -8.02397
C          2.14546       11.81018       -3.17263
C          2.30900       12.15180       -1.68282
C          3.26667       13.30656       -1.37133
C          3.28332       13.66510        0.11649
C          7.33404        6.32756       -3.19153
O          8.72838        6.30804       -2.92853
C          9.20527        4.97089       -2.90858
C          8.57414        4.18171       -1.76326
C          8.92635        4.72182       -0.37301
C          9.93695        3.79600        0.36654
N         11.12230        3.65889       -0.49431
N         10.11204        4.36542        1.70553
N          9.35435        2.45581        0.50971
H          2.51408       -2.87976       -0.34697
H          3.60930       -2.74665       -1.73574
H          2.08693       -1.83308       -1.71384
H          4.43703       -1.38899        0.24160
H          2.93039       -0.47526        0.24591
H          3.44033        0.36313       -2.07832
H          4.95005       -0.54964       -2.06941
H          5.72080        0.77485       -0.05442
H          4.22774        1.71401       -0.11486
H          4.83798        2.52353       -2.42799
H          6.32659        1.56223       -2.35771
H          7.09828        2.84976       -0.35386
H          5.63925        3.87678       -0.43600
H          6.93037        3.74527       -2.93776
H          6.65517        6.04739       -1.13889
H          4.45961        4.81458       -1.99950
H          4.92533        5.41684       -3.59176
H          5.10338        7.78363       -2.31149
H          4.04924        6.99527       -1.12403
H          2.32753        6.62995       -2.91438
H          3.49125        7.20889       -4.15158
H          5.25181       11.95295       -4.37821
H          4.02774       13.22160       -4.11166
H          4.15175       11.30171       -6.50856
H          4.72785       12.96641       -6.49589
H          2.37886       13.78136       -6.05007
H          1.79514       12.11497       -6.11459
H          3.17599       13.58888       -8.44442
H          1.43713       13.25910       -8.31324
H          2.58453       11.91788       -8.50279
H          1.33050       11.08169       -3.30278
H          1.85279       12.70937       -3.73107
H          2.61742       11.25032       -1.13061
H          1.30233       12.40678       -1.30985
H          2.97206       14.19384       -1.95769
H          4.28712       13.04553       -1.69536
H          2.28365       13.96416        0.46415
H          3.96949       14.49829        0.31918
H          3.60543       12.81029        0.72953
H          7.02001        7.37819       -3.24839
H          7.13026        5.86802       -4.18217
H         10.29222        5.00111       -2.76928
H          9.00094        4.47601       -3.88101
H          8.87395        3.12525       -1.82425
H          8.04573        4.79508        0.27778
H          9.33424        5.74021       -0.46231
H         11.57667        4.56704       -0.61035
H         11.81225        3.04986       -0.04722
H         10.39318        5.34674        1.66294
H         10.84260        3.86213        2.21361
H         10.00779        1.72430        0.23559
H          9.06734        2.30534        1.47601
