82

C          0.19090        5.12362        0.80720
C          1.22582        4.02145        0.58247
C          2.21046        3.89030        1.77091
C          3.18776        2.76795        1.56845
C          4.28107        2.96734        0.71986
N          5.15007        1.98188        0.44150
C          6.33110        2.22124       -0.42690
C          7.50068        2.79535        0.37968
C          8.79873        3.00196       -0.43086
C          8.61304        3.91024       -1.67112
C          8.31853        3.16366       -2.99072
C          7.99977        4.09126       -4.12923
C          8.78491        4.41220       -5.17455
C         10.17435        3.87364       -5.39349
C          8.30070        5.36531       -6.23593
C          9.87772        3.55557        0.51207
N          5.05631        0.75445        0.94383
C          4.03304        0.52868        1.75835
C          3.05817        1.48330        2.12985
C          1.93823        1.04886        3.01946
C          0.70314        0.61244        2.17243
C         -0.03110       -0.56422        2.82342
S         -1.20759       -1.35647        1.70117
C         -0.11105       -2.40997        0.74462
S          1.54115       -2.49667        0.95303
N         -0.80288       -3.15274       -0.16526
C         -2.22209       -2.97329       -0.38786
C         -2.67547       -1.87877       -1.13422
C         -4.04205       -1.72516       -1.37033
C         -4.94900       -2.66472       -0.87214
C         -4.48865       -3.76193       -0.13812
C         -3.12405       -3.92241        0.10514
C         -0.16751       -4.20284       -0.93144
C          0.24779       -5.37623       -0.29376
C          0.80478       -6.40737       -1.05011
C          0.94243       -6.26881       -2.43477
C          0.51764       -5.09620       -3.06456
C         -0.04145       -4.05880       -2.31504
H         -0.48749        5.19965       -0.05214
H          0.66878        6.10426        0.94309
H         -0.42156        4.92419        1.69816
H          1.79814        4.22280       -0.33785
H          0.72391        3.05532        0.42191
H          1.64613        3.73397        2.70028
H          2.75995        4.83727        1.89065
H          4.48217        3.92595        0.24093
H          6.00414        2.89977       -1.22500
H          6.57475        1.24521       -0.86193
H          7.70432        2.11447        1.22132
H          7.19507        3.76315        0.81527
H          9.13535        2.00913       -0.78084
H          9.52901        4.49973       -1.82574
H          7.82366        4.65878       -1.47464
H          7.47283        2.46618       -2.85945
H          9.18330        2.52670       -3.22889
H          7.01257        4.56712       -4.08201
H         10.51093        3.19112       -4.60471
H         10.89989        4.70029       -5.45459
H         10.23649        3.33877       -6.35456
H          7.28631        5.72924       -6.02826
H          8.29612        4.88026       -7.22550
H          8.96963        6.23654       -6.32188
H          9.61439        4.56322        0.86824
H         10.84256        3.62936       -0.00679
H         10.01940        2.91327        1.39272
H          3.97802       -0.49401        2.13662
H          1.66235        1.83795        3.73213
H          2.28187        0.18664        3.60829
H          1.04848        0.28450        1.18294
H          0.02253        1.46251        2.02389
H         -0.63193       -0.25383        3.69071
H          0.68663       -1.33642        3.13698
H         -1.95530       -1.15582       -1.51847
H         -4.39817       -0.87412       -1.95154
H         -6.01633       -2.54452       -1.05984
H         -5.19451       -4.49889        0.24569
H         -2.75309       -4.77543        0.67357
H          0.13944       -5.47089        0.78669
H          1.12909       -7.32359       -0.55588
H          1.37553       -7.07727       -3.02412
H          0.62089       -4.98630       -4.14463
H         -0.37907       -3.14205       -2.79885
