67

C          1.45568       -0.37773        0.57325
C          0.91475        0.77124       -0.00897
C         -0.46858        0.96398       -0.01803
C         -1.32633        0.01319        0.55166
C         -0.77393       -1.13606        1.13488
C          0.60883       -1.33079        1.14601
C         -2.82698        0.20456        0.51164
C         -3.47390       -0.47589       -0.71233
C         -4.99443       -0.32898       -0.78393
N         -5.36059        1.17358       -0.92649
C         -5.79092        1.43414       -2.36822
C         -5.54063        0.11527       -3.10858
C         -5.69157       -0.96907       -1.99932
C         -7.14178       -1.39091       -1.69028
C         -7.25349       -2.59219       -0.74240
C         -8.70750       -3.00002       -0.48702
C         -8.83806       -4.20441        0.45978
N        -10.21872       -4.58852        0.68905
C        -10.94791       -5.45363       -0.10189
C        -12.25371       -5.45531        0.35152
C        -12.32238       -4.55286        1.44999
C        -11.05671       -4.02862        1.63247
C         -6.43557       -0.01364       -4.34733
C         -6.17542       -1.27844       -5.18870
C         -7.17687       -1.40588       -6.31428
C         -6.94768       -0.79502       -7.55539
C         -7.90151       -0.87004       -8.57316
C         -9.09980       -1.55781       -8.36241
C         -9.33732       -2.17471       -7.13112
C         -8.38115       -2.09743       -6.11616
H          2.53545       -0.52698        0.58796
H          1.57064        1.52398       -0.44732
H         -0.88239        1.87267       -0.46337
H         -1.42765       -1.87996        1.59662
H          1.02635       -2.22416        1.61135
H         -3.02871        1.29325        0.51550
H         -3.28359       -0.19405        1.43215
H         -3.26032       -1.55453       -0.67494
H         -3.00152       -0.10847       -1.63848
H         -5.44037       -0.65498        0.16685
H         -4.54640        1.74184       -0.65917
H         -6.11307        1.42128       -0.27603
H         -5.22481        2.28681       -2.75793
H         -6.85601        1.69687       -2.34856
H         -4.48998        0.10008       -3.44365
H         -5.12367       -1.86555       -2.28944
H         -7.64523       -1.64782       -2.63345
H         -7.71976       -0.54303       -1.27658
H         -6.76351       -2.37590        0.22405
H         -6.69826       -3.44146       -1.17686
H         -9.20079       -3.24627       -1.44070
H         -9.26873       -2.15358       -0.05883
H         -8.37683       -3.97768        1.43385
H         -8.30282       -5.07423        0.04871
H        -10.47108       -6.00515       -0.90634
H        -13.06400       -6.05520       -0.04970
H        -13.19508       -4.32660        2.05412
H        -10.67603       -3.32348        2.36486
H         -6.28541        0.87037       -4.98775
H         -7.49588        0.01412       -4.04894
H         -6.23356       -2.17491       -4.55085
H         -5.15034       -1.24622       -5.59089
H         -6.00967       -0.26265       -7.73111
H         -7.70646       -0.39506       -9.53548
H         -9.84257       -1.62008       -9.15811
H        -10.26616       -2.72095       -6.96238
H         -8.57022       -2.59101       -5.15881
