103

C          0.54211       -0.51931       -0.56120
C          2.06674       -0.45758       -0.44056
C          2.55171        0.00328        0.93868
C          4.07722        0.06719        1.06190
C          4.57038        0.52077        2.43965
C          6.09706        0.58132        2.54971
C          6.60511        1.02074        3.92653
C          8.13283        1.08636        4.01434
C          8.66465        1.49342        5.39226
C         10.19268        1.58534        5.43972
C         10.76235        1.95193        6.81412
C         12.28797        2.08291        6.80263
C         12.91136        2.44467        8.15483
C         14.42895        2.63066        8.05000
C         15.09667        3.05379        9.36459
C         16.56874        3.52555        9.29399
C         17.65062        2.47416        8.99718
C         17.66310        2.03417        7.53518
N         17.38113        3.13784        6.60228
C         17.04643        4.38431        7.01796
N         16.97984        5.37902        6.12049
C         16.44542        6.71471        6.38957
C         16.07925        7.40710        5.07329
C         15.57478        8.83537        5.30300
P         15.03436        9.72898        3.80922
O         14.54161       11.10204        4.06246
O         16.33624        9.55345        2.89031
C         16.39996       10.24703        1.60039
C         17.11885       11.57590        1.73180
O         13.95564        8.75778        3.09573
C         12.55143        9.15138        3.01541
C         11.78190        8.75376        4.26264
N         16.75508        4.60530        8.31183
C         17.28863        2.77367        5.18454
C         18.54935        3.17397        4.38715
O         18.74701        4.38535        4.23767
C         19.46468        2.15956        3.83703
C         20.51270        2.60102        3.00000
C         21.41097        1.68859        2.46142
C         21.28380        0.32418        2.75542
C         20.25413       -0.12616        3.58702
C         19.34462        0.78374        4.12252
H          0.22869       -0.85221       -1.56027
H          0.08679        0.46611       -0.38156
H          0.11158       -1.21836        0.17148
H          2.47042        0.22123       -1.21115
H          2.49459       -1.45047       -0.66090
H          2.15034       -0.67624        1.71151
H          2.12440        0.99712        1.16200
H          4.47619        0.74949        0.29026
H          4.50277       -0.92596        0.83282
H          4.17530       -0.16220        3.21228
H          4.14724        1.51416        2.67150
H          6.48973        1.26984        1.78027
H          6.51854       -0.41036        2.30726
H          6.22338        0.32642        4.69563
H          6.18114        2.00931        4.17612
H          8.50873        1.79598        3.25571
H          8.55501        0.10343        3.73969
H          8.31606        0.76839        6.14836
H          8.22942        2.46561        5.68295
H         10.53234        2.32965        4.69707
H         10.62378        0.62135        5.11551
H         10.46178        1.19022        7.55386
H         10.31576        2.90136        7.15760
H         12.57518        2.84978        6.06002
H         12.72976        1.13668        6.44206
H         12.67796        1.66360        8.89773
H         12.45592        3.37496        8.53619
H         14.61861        3.39405        7.27614
H         14.87037        1.69263        7.67521
H         15.04313        2.23732       10.10280
H         14.51622        3.88522        9.79774
H         16.81134        3.96934       10.27000
H         17.51180        1.59015        9.63277
H         18.62452        2.91134        9.25937
H         16.90939        1.25127        7.35635
H         18.64543        1.60702        7.27929
H         17.56161        5.24097        5.27124
H         17.18378        7.32502        6.94153
H         15.54757        6.61768        7.02181
H         15.31084        6.81370        4.55558
H         16.96230        7.43136        4.41633
H         16.34688        9.46644        5.77006
H         14.70086        8.85047        5.97373
H         15.37983       10.37607        1.20849
H         16.93434        9.55452        0.93664
H         16.56431       12.25935        2.38658
H         17.21210       12.04170        0.74045
H         18.12913       11.43545        2.13830
H         12.17292        8.63134        2.12576
H         12.49970       10.23532        2.84565
H         11.88409        7.67871        4.46625
H         10.71400        8.97386        4.12451
H         12.12596        9.32181        5.13810
H         16.66985        5.56843        8.61337
H         16.44199        3.30924        4.72872
H         17.06609        1.70250        5.13561
H         20.59553        3.66600        2.78453
H         22.21243        2.03288        1.80761
H         21.98956       -0.39099        2.33092
H         20.15915       -1.18782        3.81425
H         18.54842        0.41023        4.76628
