69

C          2.41012      -13.02763        2.13207
C          2.89187      -11.62131        1.76672
C          4.23382      -11.25608        2.41109
C          4.71158       -9.83768        2.08214
C          6.04376       -9.47964        2.74843
C          6.50311       -8.04171        2.47914
C          7.82182       -7.70975        3.19053
C          8.24346       -6.26281        2.98859
O          9.40335       -5.95633        3.85141
C         10.61528       -6.07086        3.33944
O         10.86271       -6.37270        2.16588
C         11.71031       -5.77821        4.34679
C         12.85849       -6.82105        4.32979
N         13.33005       -6.94080        2.84487
C         14.48689       -5.99469        2.68543
C         14.67295       -5.39402        4.09985
O         14.01943       -6.35343        4.95994
C         16.11322       -5.24824        4.57740
C         17.05148       -4.37351        3.72653
C         16.76814       -2.86032        3.67201
S         15.69070       -2.38944        2.29982
O         16.28938       -2.83684        1.05919
O         14.32235       -2.74012        2.61943
O         15.75790       -0.77772        2.37156
C         12.50995       -8.21226        4.92034
C         11.80586       -8.09151        6.29838
O         12.29171       -7.06667        7.15133
C         11.66785       -9.12807        3.99895
C         11.54686      -10.57113        4.50599
H          1.45088      -13.26171        1.65097
H          2.27005      -13.13213        3.21834
H          3.13439      -13.79380        1.81757
H          2.13187      -10.88104        2.06867
H          2.97944      -11.53347        0.67060
H          5.00064      -11.98485        2.09330
H          4.15099      -11.36554        3.50710
H          3.94115       -9.11228        2.39675
H          4.80499       -9.72439        0.98801
H          6.82428      -10.18293        2.40803
H          5.95511       -9.62984        3.83874
H          5.71973       -7.34048        2.81354
H          6.61461       -7.88332        1.39325
H          8.61735       -8.37744        2.82036
H          7.71560       -7.89809        4.27126
H          7.47581       -5.56011        3.33431
H          8.51237       -6.03971        1.94874
H         11.31812       -5.70887        5.36550
H         12.11473       -4.78694        4.08725
H         12.47047       -6.70976        2.25141
H         13.61106       -7.90777        2.65796
H         14.24313       -5.23527        1.93587
H         15.36138       -6.56957        2.35971
H         14.15209       -4.42724        4.15235
H         16.55034       -6.25777        4.63633
H         16.08262       -4.86226        5.60776
H         17.13995       -4.75969        2.69882
H         18.05603       -4.48428        4.15804
H         17.69806       -2.30483        3.49238
H         16.30171       -2.46771        4.58637
H         16.36788       -0.46363        1.67539
H         13.49567       -8.68797        5.07677
H         11.84856       -9.07493        6.79244
H         10.74039       -7.86000        6.14039
H         13.20058       -7.27300        7.42018
H         12.09556       -9.16776        2.98355
H         10.65935       -8.70437        3.87656
H         12.53473      -11.01561        4.69496
H         11.03992      -11.19296        3.75750
H         10.96385      -10.64062        5.43273
