45

C          6.69677       -0.30295        4.06660
C          6.15768       -0.21513        2.63709
C          6.89186        0.81388        1.76965
C          6.34957        0.90137        0.33990
C          7.06756        1.93321       -0.53675
C          6.52026        1.98012       -1.96887
C          7.10869        3.08012       -2.86359
C          8.62290        2.95865       -3.09527
C          9.10679        3.96476       -4.14693
C         10.62243        4.02783       -4.44434
S         11.54741        4.62142       -2.92407
C         12.02380        3.05127       -2.57368
N         11.78788        2.12964       -3.48166
C         11.25074        2.62752       -4.77715
C         12.32695        2.65350       -5.75991
C         13.23138        2.67993       -6.56080
C         10.90586        5.12605       -5.50573
O         11.52195        6.11461       -5.15668
C         10.31833        4.96827       -6.88371
H          6.14671       -1.04755        4.65742
H          6.61064        0.66222        4.58733
H          7.75880       -0.59090        4.07779
H          5.08419        0.03651        2.66291
H          6.22251       -1.20578        2.15599
H          7.96790        0.56334        1.74038
H          6.82660        1.80690        2.24844
H          5.27345        1.14413        0.37215
H          6.41838       -0.09187       -0.13775
H          8.14774        1.70082       -0.54605
H          6.97590        2.93313       -0.07633
H          5.42891        2.12416       -1.92813
H          6.67250        0.99873       -2.45184
H          6.89412        4.06947       -2.42480
H          6.59398        3.05924       -3.83843
H          8.85179        1.92673       -3.41456
H          9.15216        3.12036       -2.14337
H          8.78106        4.98004       -3.86616
H          8.60967        3.74460       -5.10758
H         12.54912        2.79943       -1.65024
H         12.15921        1.18254       -3.40606
H         10.44838        1.94654       -5.10244
H         14.02946        2.70007       -7.27696
H          9.33835        5.47203       -6.89896
H         10.16865        3.92504       -7.18516
H         10.96375        5.48238       -7.60432
