71

C          6.87377       -1.34109       10.41436
C          6.34117       -1.89159        9.08975
C          6.93473       -3.25405        8.71710
C          6.42154       -3.80197        7.38152
C          7.02207       -5.16388        7.01546
C          6.50232       -5.76913        5.70224
C          6.84778       -4.98928        4.44237
O          8.28057       -4.95717        4.29112
C          8.68942       -4.20730        3.17111
C         10.21919       -4.13938        3.11628
C         10.84725       -4.71095        4.26351
C         12.20822       -4.83177        4.40545
C         13.03206       -4.44099        3.34045
C         12.42757       -3.84677        2.16604
C         10.99322       -3.60447        2.06349
C         10.44122       -2.79797        0.84635
C         10.38386       -3.69775       -0.43900
C          9.58459       -5.02545       -0.42086
C          8.12252       -4.86085       -0.86479
C         10.27982       -6.05776       -1.32362
C          9.03272       -2.18082        1.08011
O          9.00435       -1.14749        2.05801
C         11.33033       -1.54234        0.53201
C         13.31247       -3.57869        1.10910
N         14.63848       -3.82193        1.18625
C         15.23404       -4.32567        2.32626
C         14.43823       -4.63735        3.38751
C         15.50624       -3.46772        0.02804
C         16.07811       -2.02118        0.12073
F         15.03408       -1.15023        0.17257
F         16.80325       -1.91275        1.26521
F         16.52946       -4.34430       -0.01812
F         14.78138       -3.57679       -1.10526
H          6.42245       -0.36933       10.65644
H          7.96471       -1.20195       10.37897
H          6.65483       -2.02579       11.24708
H          6.54988       -1.17141        8.27989
H          5.24298       -1.97832        9.14103
H          6.71311       -3.97985        9.51899
H          8.03603       -3.17324        8.67978
H          6.63869       -3.06327        6.59009
H          5.32153       -3.88816        7.42134
H          6.80759       -5.87746        7.82690
H          8.12085       -5.08103        6.97200
H          5.40357       -5.85026        5.73959
H          6.88420       -6.79584        5.58889
H          6.46854       -3.95133        4.49065
H          6.39853       -5.47106        3.55426
H          8.24113       -3.19634        3.23156
H          8.30856       -4.67460        2.24303
H         10.18844       -5.06198        5.05535
H         12.64498       -5.25588        5.31019
H         11.41927       -3.94310       -0.72094
H         10.00908       -3.05868       -1.25652
H          9.59995       -5.43035        0.60597
H          8.07726       -4.49644       -1.90219
H          7.55605       -4.15379       -0.24531
H          7.59621       -5.82462       -0.83176
H         10.33805       -5.69507       -2.36145
H          9.72771       -7.00733       -1.33645
H         11.30394       -6.26864       -0.98248
H          8.25945       -2.93422        1.26450
H          8.75670       -1.68640        0.13794
H          9.20093       -1.51896        2.93284
H         12.00981       -1.70253       -0.31579
H         11.91627       -1.20461        1.39556
H         10.68690       -0.70108        0.25096
H         12.97957       -3.18954        0.15726
H         16.30962       -4.46752        2.29744
H         14.89196       -5.06413        4.28165
H         16.71270       -1.80007       -0.75263
