68

C          1.25886        0.32600        0.15422
C          2.68378       -0.22718        0.06430
C          3.01626       -1.29690        1.12528
C          2.18635       -2.57855        0.99429
N          2.65351       -3.37575       -0.14897
C          3.91020       -3.32864       -0.63066
N          4.25261       -4.14214       -1.65154
C          5.58753       -4.29047       -2.23186
C          6.03385       -5.75253       -2.33497
C          7.57178       -5.81502       -2.19923
O          8.16753       -4.97431       -1.52640
N          8.15021       -6.87120       -2.83685
C          9.50786       -7.28306       -2.86179
C          9.80556       -8.42131       -3.62851
C         11.11337       -8.89322       -3.70482
C         12.13713       -8.23471       -3.01794
C         11.83572       -7.10361       -2.25715
C         10.52990       -6.61658       -2.16917
N          4.78086       -2.45832       -0.10917
C          4.51163       -1.67745        1.11703
C          5.02077       -2.44395        2.35151
C          4.87353       -1.67202        3.66764
C          5.59933       -2.39242        4.80673
S          5.29785       -1.48565        6.34828
C          6.59153       -2.12711        7.42207
S          7.71532       -3.23913        6.90140
N          6.53374       -1.60764        8.67342
C          7.52263       -1.94383        9.70386
C          8.23474       -0.66956       10.15724
O          7.30914        0.31774       10.61582
C          6.37723        0.65387        9.59600
C          5.59449       -0.57664        9.12515
H          1.11910        1.14634       -0.56083
H          1.04322        0.72171        1.15724
H          0.49584       -0.43086       -0.07810
H          3.39947        0.60017        0.19395
H          2.86499       -0.62291       -0.94854
H          2.78849       -0.87401        2.11483
H          1.12729       -2.34502        0.82832
H          2.25170       -3.18128        1.91381
H          2.05169       -4.11976       -0.48357
H          3.49664       -4.65777       -2.09075
H          6.33329       -3.80907       -1.58207
H          5.62861       -3.78974       -3.21074
H          5.67909       -6.22780       -3.26080
H          5.61719       -6.32170       -1.48792
H          7.52375       -7.46873       -3.36876
H          9.00738       -8.93878       -4.16715
H         11.33103       -9.77814       -4.30322
H         13.16167       -8.60179       -3.07604
H         12.62767       -6.58268       -1.71822
H         10.30049       -5.73559       -1.57680
H          5.71342       -2.42736       -0.50589
H          5.09701       -0.75115        1.01054
H          6.08452       -2.67850        2.18393
H          4.50880       -3.41818        2.42437
H          3.80776       -1.55149        3.92056
H          5.28546       -0.65532        3.55748
H          6.68689       -2.43181        4.65071
H          5.24427       -3.42669        4.92292
H          8.22869       -2.66666        9.27770
H          6.99511       -2.40780       10.55403
H          8.83852       -0.26545        9.32158
H          8.90052       -0.88525       11.00312
H          6.89823        1.10966        8.73058
H          5.69376        1.39659       10.02928
H          4.90572       -0.29999        8.31837
H          4.99918       -0.98579        9.95876
