77

C          1.46636        3.48784       -0.05309
C          2.78810        2.71946       -0.11482
C          3.66681        3.12433       -1.30290
C          4.98983        2.35560       -1.37230
C          5.84861        2.71636       -2.58863
C          7.16982        1.94254       -2.64598
C          8.00037        2.24170       -3.89837
C          9.31000        1.44676       -3.95069
C         10.08137        1.64964       -5.26504
C         11.36200        0.82198       -5.28409
N         12.00367        0.73299       -6.65830
C         12.56328        2.05088       -7.15413
C         13.16031        1.91376       -8.55457
C         14.21054        0.78354       -8.69990
C         13.56343       -0.52529       -8.16717
C         13.05557       -0.35512       -6.73277
C         14.37080       -1.83726       -8.29984
C         13.46484       -3.07881       -8.41273
P         12.87514       -3.53903      -10.07900
O         11.78327       -4.53697      -10.07986
O         12.53004       -2.08541      -10.70306
C         12.00762       -2.03906      -12.07105
C         11.92708       -0.59114      -12.50614
O         14.19637       -3.95401      -10.89756
C         14.40253       -5.33434      -11.35309
C         15.27712       -6.11096      -10.38903
C         15.59060        1.15583       -8.11848
C         16.42362        2.15783       -8.97034
F         15.73666        3.33576       -9.13224
F         17.58174        2.42955       -8.32281
F         15.47088        1.66678       -6.83785
F         16.38863        0.04233       -8.01684
H          0.85257        3.16412        0.79833
H          0.87414        3.33480       -0.96748
H          1.63807        4.56923        0.05278
H          2.58355        1.63690       -0.17110
H          3.34995        2.87330        0.82190
H          3.87401        4.20771       -1.25163
H          3.10323        2.96758       -2.23966
H          4.77911        1.27175       -1.38805
H          5.56704        2.53857       -0.44909
H          6.05778        3.80021       -2.58367
H          5.27220        2.52172       -3.51011
H          6.95756        0.85985       -2.60506
H          7.76660        2.16992       -1.74577
H          8.22235        3.32135       -3.94824
H          7.39879        2.00987       -4.79462
H          9.08941        0.37284       -3.82623
H          9.94979        1.73211       -3.09886
H         10.30210        2.71942       -5.39988
H          9.43284        1.34432       -6.10626
H         11.15008       -0.21638       -4.99098
H         12.13011        1.21800       -4.60547
H         11.25496        0.46078       -7.31368
H         13.30750        2.36269       -6.41200
H         11.73907        2.77356       -7.15446
H         13.57359        2.89098       -8.82973
H         12.35144        1.70854       -9.27392
H         14.38330        0.62719       -9.77741
H         12.67830       -0.65818       -8.81611
H         13.85253       -0.07475       -6.03103
H         12.57761       -1.27516       -6.37128
H         15.04524       -1.95214       -7.43966
H         15.02152       -1.77479       -9.18188
H         12.56687       -3.00594       -7.77898
H         14.00032       -3.97384       -8.06368
H         11.02188       -2.52530      -12.07841
H         12.68636       -2.61012      -12.72242
H         11.25826       -0.01524      -11.85118
H         11.52446       -0.53589      -13.52663
H         12.91987       -0.12058      -12.50906
H         14.88168       -5.23118      -12.33542
H         13.41938       -5.80714      -11.47958
H         16.24187       -5.61050      -10.23229
H         15.47557       -7.10963      -10.80296
H         14.78075       -6.24835       -9.41853
H         16.65024        1.73853       -9.96497
