130

C          2.77667       -0.64619       -2.33357
C          3.98774       -0.35999       -1.44236
C          4.34041       -1.52233       -0.50714
C          5.52636       -1.22569        0.41573
C          5.87657       -2.38646        1.35365
C          7.04543       -2.06259        2.29274
C          7.36287       -3.22459        3.23655
S          8.78838       -2.72600        4.28035
C          8.91037       -4.03589        5.40416
N          9.55402       -4.01551        6.54313
N          9.43867       -5.29463        7.08125
C          8.72715       -5.99368        6.25507
O          8.34756       -5.27476        5.14059
C          8.34592       -7.44294        6.34381
C          8.44827       -7.86639        7.83137
C          8.13209       -9.32509        8.20724
O          9.32527       -9.89653        8.72236
C          9.18919      -11.24938        9.15413
C         10.44241      -11.57886        9.95539
O         10.42954      -12.98552       10.16251
C         11.30641      -13.51653       11.07850
C         11.19286      -14.89924       11.29267
C         12.00358      -15.52157       12.22994
C         12.94596      -14.80479       12.99731
C         13.06789      -13.43503       12.72903
C         12.26676      -12.78467       11.78453
C         13.79266      -15.52380       14.05609
C         12.89992      -16.34992       15.04059
C         11.91465      -15.71307       16.06923
C         12.64467      -15.08956       17.27781
C         10.97380      -14.66095       15.45216
C         11.05314      -16.88133       16.59878
C         14.69151      -16.55300       13.31779
C         14.73087      -14.55844       14.80163
C          6.88531       -7.67365        5.81262
C          6.99856       -8.80503        4.87485
N          8.23465       -9.09330        4.61383
C          9.24458       -8.25474        5.30814
C         10.41906       -9.09958        5.80292
C         11.62834       -8.27410        6.26753
C         12.69096       -9.17707        6.90240
C         13.93982       -8.43220        7.38303
C         14.90413       -9.33784        8.15685
C         16.19449       -8.64067        8.59900
C         17.11193       -9.53788        9.43588
C         18.42904       -8.86894        9.84242
C         19.31651       -9.75324       10.72429
C         20.65847       -9.11096       11.08979
C         21.52650       -9.97998       12.00564
C         22.89255       -9.36487       12.32572
C         23.74488      -10.21447       13.27478
C         25.11923       -9.60629       13.56676
H          2.55417        0.20353       -2.99297
H          1.87628       -0.84366       -1.73260
H          2.94725       -1.52561       -2.97252
H          3.79678        0.54384       -0.83947
H          4.86243       -0.12283       -2.07116
H          4.55836       -2.42207       -1.10988
H          3.45678       -1.77626        0.10495
H          5.30366       -0.32791        1.01780
H          6.41094       -0.96974       -0.19272
H          6.12260       -3.28069        0.75487
H          4.98802       -2.65232        1.95250
H          6.80686       -1.16518        2.88575
H          7.93976       -1.81591        1.69701
H          7.63021       -4.12972        2.67442
H          6.51029       -3.44504        3.89381
H          7.78210       -7.18893        8.38328
H          9.45371       -7.64040        8.20697
H          7.76134       -9.92582        7.34916
H          7.33911       -9.36258        8.97597
H          9.10066      -11.93391        8.28870
H          8.28810      -11.37275        9.78122
H         10.43150      -11.03343       10.91336
H         11.34157      -11.27102        9.39086
H         10.45424      -15.46274       10.72186
H         11.88197      -16.59467       12.38130
H         13.79424      -12.83555       13.27569
H         12.40288      -11.71673       11.61956
H         13.58797      -16.99277       15.61601
H         12.31038      -17.04714       14.42357
H         13.17134      -14.16199       17.02283
H         13.37992      -15.78771       17.70473
H         11.92111      -14.84446       18.06919
H         11.51696      -13.77665       15.09422
H         10.24991      -14.32165       16.20789
H         10.40490      -15.06688       14.60387
H         11.67674      -17.66680       17.05087
H         10.46559      -17.34161       15.79071
H         10.35065      -16.52941       17.36848
H         14.09690      -17.32712       12.81354
H         15.36120      -17.05514       14.03091
H         15.30913      -16.05267       12.55885
H         14.20073      -13.71795       15.26604
H         15.49222      -14.14401       14.12499
H         15.26108      -15.09561       15.59948
H          6.49626       -6.79756        5.26213
H          6.15547       -7.87266        6.61122
H          6.17974       -9.35331        4.40620
H          8.51428       -9.83302        3.96700
H          9.61860       -7.54806        4.54620
H         10.73946       -9.74743        4.96727
H         10.09733       -9.76306        6.61727
H         11.31879       -7.51117        6.99794
H         12.05263       -7.72173        5.41206
H         12.98637       -9.96309        6.18517
H         12.23136       -9.70236        7.75739
H         13.63846       -7.58620        8.02466
H         14.46070       -7.98668        6.51807
H         15.16037      -10.21485        7.53651
H         14.38423       -9.74048        9.04479
H         15.94244       -7.73501        9.17803
H         16.74055       -8.28585        7.70749
H         17.33291      -10.46158        8.87242
H         16.57190       -9.86190       10.34335
H         18.21293       -7.92471       10.37252
H         18.98651       -8.58238        8.93329
H         19.50132      -10.71297       10.21012
H         18.76962      -10.00866       11.64929
H         20.47712       -8.13674       11.57713
H         21.21656       -8.88424       10.16429
H         21.67487      -10.96885       11.53644
H         20.98232      -10.17320       12.94717
H         22.74863       -8.36231       12.76644
H         23.44785       -9.20160       11.38499
H         23.87223      -11.22224       12.84378
H         23.19671      -10.35957       14.22128
H         25.70768       -9.48799       12.64461
H         25.70165      -10.23584       14.25343
H         25.02619       -8.61120       14.02719
