67

C          1.01972        2.98347       -0.93515
C          2.52443        3.14891       -0.70855
C          2.97969        2.70481        0.68669
C          4.48061        2.89224        0.92684
C          4.95627        2.37497        2.28949
C          6.44749        2.63619        2.53108
C          6.94819        2.05145        3.83996
O          8.33895        2.39919        3.98318
C          8.94345        1.84971        5.12540
C         10.37220        2.33143        5.19457
C         10.81624        3.29591        4.28740
N         12.08907        3.74065        4.36012
C         12.52961        4.84315        3.46561
O         12.53846        5.98669        4.25746
C         13.07200        7.16057        3.59364
C         13.01657        8.30585        4.58829
C         13.58130        9.61939        4.03402
C         13.51104       10.75453        5.06210
C         14.05118       12.09352        4.55180
C         13.96813       13.20960        5.59824
C         14.48853       14.56429        5.10598
C         14.38982       15.66586        6.16398
C         12.96995        3.29792        5.28331
C         12.58718        2.32417        6.22177
C         11.25606        1.85003        6.15248
N         13.47049        1.85663        7.14187
H          0.72769        3.30287       -1.94485
H          0.43929        3.58180       -0.21701
H          0.71021        1.93431       -0.81668
H          2.80779        4.20386       -0.86451
H          3.07816        2.57247       -1.46922
H          2.71344        1.64318        0.83479
H          2.41448        3.26666        1.45128
H          4.73428        3.96288        0.83367
H          5.04569        2.37791        0.12964
H          4.75186        1.29260        2.35791
H          4.36357        2.84890        3.09062
H          6.63987        3.72163        2.53261
H          7.04161        2.20970        1.70642
H          6.84432        0.94980        3.84797
H          6.38276        2.45093        4.70345
H          8.92977        0.74051        5.10237
H          8.41662        2.15764        6.05316
H         10.17271        3.71298        3.51877
H         11.81223        4.89118        2.62693
H         13.53104        4.58365        3.07195
H         12.46822        7.37813        2.69373
H         14.10918        6.95270        3.26988
H         13.57494        8.01181        5.49180
H         11.96935        8.45029        4.89838
H         13.02548        9.91106        3.12642
H         14.62873        9.47289        3.71871
H         14.07024       10.45749        5.96663
H         12.46353       10.88468        5.38531
H         13.49065       12.39472        3.64954
H         15.09974       11.96922        4.22938
H         14.53460       12.90815        6.49718
H         12.92017       13.32187        5.92805
H         13.92415       14.86450        4.20699
H         15.53709       14.45538        4.78140
H         13.34892       15.81926        6.48535
H         14.76364       16.62570        5.78265
H         14.97730       15.41376        7.05944
H         13.96030        3.74788        5.26109
H         10.92338        1.09232        6.86607
H         14.40365        2.23701        7.22346
H         13.17948        1.19813        7.85154
