38

C          0.90352        2.32350       -3.20872
C          2.43282        2.27236       -3.24095
C          3.05686        2.50814       -1.85749
C          4.58421        2.45333       -1.91773
S          5.21717        2.75345       -0.21828
C          6.90623        2.69288       -0.49996
N          7.59059        2.47956       -1.61500
N          8.92543        2.54121       -1.27595
C          8.96434        2.78897        0.00054
O          7.73714        2.90531        0.58547
S         10.37173        2.99942        1.02243
C         10.87819        1.31656        1.43498
C         10.86642        0.27542        0.50696
C         11.30158       -0.97265        0.96546
N         11.71397       -1.20277        2.22061
C         11.70949       -0.18319        3.08558
C         11.29430        1.11417        2.75037
C         11.63951        3.49737       -0.22204
C         11.33120        4.88667       -0.75698
O         11.04842        5.70689        0.36914
H          0.48430        2.15451       -4.20890
H          0.54245        3.30102       -2.85772
H          0.49001        1.55476       -2.54019
H          2.81619        3.02863       -3.94552
H          2.76522        1.29513       -3.62786
H          2.68333        1.74924       -1.15031
H          2.73395        3.48828       -1.46941
H          5.00097        3.22918       -2.57300
H          4.95091        1.47235       -2.24672
H         10.52514        0.40842       -0.52040
H         11.31486       -1.82776        0.28519
H         12.04582       -0.40266        4.10193
H         11.29557        1.91395        3.49142
H         11.67324        2.73465       -1.00851
H         12.56080        3.47819        0.37818
H         10.48875        4.84627       -1.46682
H         12.22888        5.22191       -1.30834
H         10.85965        6.61216        0.07535
