40

C          1.67667        6.61838        6.30014
C          3.14240        6.41635        6.69236
C          3.78873        5.22172        5.97490
C          5.23225        5.02911        6.41161
O          5.83901        3.86060        5.75048
C          6.48112        4.08319        4.60431
O          6.64318        5.15998        4.05836
C          6.99032        2.76665        4.00720
C          8.35987        2.93780        3.35613
Br         9.70973        3.32632        4.76054
S          8.90112        1.36049        2.52413
C          9.72806        2.25291        1.33665
N          9.51232        3.54040        1.30912
C          8.46576        3.99296        2.24576
C         10.20368        4.48629        0.41807
C         11.20289        5.38144        1.16140
C         12.15989        6.03873        0.15079
N         12.91319        5.00994       -0.57392
H          1.24394        7.48306        6.81992
H          1.06924        5.73826        6.55666
H          1.57125        6.79281        5.21942
H          3.21579        6.27211        7.78309
H          3.71586        7.33016        6.46510
H          3.75437        5.38265        4.88516
H          3.21964        4.30228        6.18625
H          5.30877        4.78821        7.47916
H          5.85037        5.90752        6.18462
H          6.26161        2.45214        3.24042
H          7.02199        1.98586        4.77658
H         10.41740        1.77779        0.63708
H          7.51922        4.06571        1.68356
H          8.69838        4.98281        2.64763
H          9.42977        5.08273       -0.08891
H         10.75123        3.90209       -0.33505
H         11.78324        4.76548        1.86712
H         10.69036        6.15616        1.74998
H         12.78987        6.76412        0.69439
H         11.57804        6.61917       -0.58158
H         13.72754        4.70681       -0.03869
H         13.26525        5.36811       -1.46053
