75

C          1.50217        0.43012       -1.27614
C          2.96973        0.37508       -0.84405
C          3.33027       -0.90960       -0.09007
C          4.80011       -0.98904        0.33392
C          5.14978       -2.28305        1.07559
C          6.62051       -2.38240        1.49298
C          6.95535       -3.69066        2.21628
C          8.42651       -3.81939        2.62536
C          8.74204       -5.15894        3.29767
C         10.21206       -5.32845        3.70032
C         10.48290       -6.71072        4.30368
C         11.90359       -6.93826        4.85853
C         12.04076       -8.33558        5.48102
N         12.10159       -9.35806        4.42709
C         12.55263       -9.11130        3.18738
N         12.54351      -10.11119        2.27622
C         13.02281       -9.97792        0.90185
C         14.55012      -10.13974        0.75961
C         15.06237      -11.55830        0.62350
Br        14.65521      -12.65116        2.23226
Br        15.10685       -9.21745       -0.90226
N         12.94109       -7.87454        2.85541
C         13.02876       -6.76507        3.81987
C         14.45022       -6.64453        4.47903
C         15.53198       -7.44286        3.79219
C         16.18385       -6.96686        2.64314
C         17.13569       -7.74759        1.98486
C         17.47195       -9.03071        2.44905
C         16.82248       -9.50099        3.60071
C         15.86955       -8.72132        4.25898
C         18.50994       -9.86509        1.74479
H          1.27222        1.36353       -1.80794
H          0.82764        0.36760       -0.40912
H          1.25230       -0.40476       -1.94788
H          3.20024        1.24609       -0.20742
H          3.61948        0.46994       -1.73070
H          3.08685       -1.78181       -0.72280
H          2.68717       -0.99927        0.80341
H          5.04423       -0.12281        0.97380
H          5.44333       -0.89479       -0.55890
H          4.89592       -3.14706        0.43604
H          4.50992       -2.37462        1.97090
H          6.87680       -1.52705        2.14241
H          7.26134       -2.28525        0.59878
H          6.68563       -4.54205        1.56627
H          6.31874       -3.78514        3.11341
H          8.69456       -2.99236        3.30541
H          9.06605       -3.69820        1.73316
H          8.45939       -5.98008        2.61526
H          8.10623       -5.27933        4.19185
H         10.49250       -4.54359        4.42392
H         10.84293       -5.16575        2.80959
H         10.24114       -7.48229        3.55288
H          9.77784       -6.87603        5.13533
H         12.09362       -6.20463        5.65785
H         11.16972       -8.56082        6.10925
H         12.93575       -8.41260        6.11777
H         11.66325      -10.25638        4.59568
H         12.56260      -11.05993        2.64834
H         12.70432       -9.00337        0.51017
H         12.50250      -10.73369        0.29743
H         15.08529       -9.61140        1.55746
H         16.15143      -11.58542        0.53926
H         14.60097      -12.09413       -0.21281
H         13.48944       -7.77565        2.00713
H         12.83925       -5.85920        3.23042
H         14.38585       -6.97014        5.52718
H         14.71144       -5.57757        4.50191
H         15.95481       -5.96820        2.26334
H         17.62807       -7.35352        1.09407
H         17.06474      -10.49270        3.98707
H         15.38729       -9.11308        5.15787
H         18.44396       -9.75455        0.65360
H         18.41119      -10.92918        1.99699
H         19.52488       -9.55628        2.03901
