87

C         12.74582       -0.71455       -9.90460
C         12.27129       -0.81340       -8.45281
C         13.03950       -1.85385       -7.63062
C         12.56931       -1.96162       -6.17666
C         13.34506       -2.99495       -5.35309
C         12.88965       -3.08373       -3.89299
C         13.67222       -4.10485       -3.06068
C         13.24092       -4.14983       -1.59114
C         14.01442       -5.16744       -0.74577
C         13.65099       -5.11627        0.74188
C         14.41575       -6.12873        1.60211
C         14.12105       -5.98737        3.09882
C         14.87400       -6.99743        3.97515
C         14.67446       -6.74058        5.47538
C         15.27076       -7.80222        6.39623
N         16.73326       -8.09601        6.10499
C         17.63263       -6.91357        6.40501
C         18.90683       -6.95059        5.56758
C         19.80198       -5.72555        5.80209
S         20.46678       -5.59735        7.48410
C         19.38573       -4.36606        8.25296
S         18.10985       -3.64011        7.45444
N         19.74838       -4.08584        9.52328
C         20.85648       -4.71477       10.25488
C         20.32834       -5.32510       11.55752
O         19.65869       -4.35916       12.35486
C         18.56707       -3.77640       11.64482
C         19.02587       -3.10735       10.34989
C         17.20010       -9.37435        6.78189
C         16.86140      -10.62099        5.97418
C         17.34681      -11.89945        6.67491
C         17.07524      -13.16072        5.85192
H         12.17985        0.04333      -10.46350
H         12.62507       -1.67346      -10.43085
H         13.81036       -0.44110       -9.95975
H         11.19546       -1.05728       -8.43237
H         12.36490        0.17281       -7.96666
H         14.11620       -1.60774       -7.64847
H         12.94961       -2.84104       -8.11804
H         11.49403       -2.21261       -6.15814
H         12.65489       -0.97266       -5.69232
H         14.42155       -2.74974       -5.38365
H         13.24950       -3.98733       -5.82805
H         11.81446       -3.33305       -3.85950
H         12.98118       -2.08798       -3.42401
H         14.74996       -3.87035       -3.11552
H         13.55894       -5.10756       -3.50899
H         12.16115       -4.37220       -1.53218
H         13.36446       -3.14518       -1.14951
H         15.09782       -4.98679       -0.85992
H         13.83459       -6.18400       -1.13683
H         12.56649       -5.28203        0.86226
H         13.84408       -4.09857        1.12366
H         15.50015       -6.00376        1.43258
H         14.17183       -7.15294        1.27035
H         13.03824       -6.09611        3.27831
H         14.38177       -4.96590        3.42480
H         15.94838       -6.93488        3.71250
H         14.54953       -8.02220        3.71921
H         13.59736       -6.71681        5.70402
H         15.05014       -5.74032        5.74040
H         14.74471       -8.75907        6.27710
H         15.22058       -7.50783        7.45344
H         16.79002       -8.25723        5.08772
H         17.84390       -6.93929        7.48236
H         17.06787       -5.99812        6.20263
H         18.63818       -6.96572        4.49626
H         19.48293       -7.86847        5.76606
H         19.26174       -4.78468        5.60865
H         20.68240       -5.77721        5.14845
H         21.61163       -3.94292       10.47677
H         21.33266       -5.49077        9.64498
H         21.16351       -5.70558       12.16009
H         19.64810       -6.16801       11.31980
H         18.12072       -3.03236       12.31694
H         17.80630       -4.54887       11.41587
H         19.71210       -2.27443       10.57481
H         18.17695       -2.72530        9.77196
H         16.73996       -9.38326        7.77992
H         18.28605       -9.28486        6.91405
H         17.33662      -10.54721        4.97970
H         15.77508      -10.69212        5.80152
H         16.85438      -11.98164        7.65767
H         18.42697      -11.81429        6.87862
H         16.00174      -13.28819        5.65216
H         17.42150      -14.05554        6.38409
H         17.59569      -13.12856        4.88406
