73

C          0.34878        1.85901       -8.28455
C          1.84385        2.05984       -8.02581
C          2.61613        0.74325       -7.88231
C          4.11900        0.93771       -7.66244
C          4.89346       -0.37076       -7.47317
C          6.39241       -0.15347       -7.24520
C          7.18674       -1.45236       -7.06210
C          8.70735       -1.25517       -6.97818
C          9.14570       -0.42031       -5.76661
C         10.64066       -0.11078       -5.78574
O         11.44886       -1.32381       -5.78827
C         11.53708       -1.75049       -4.48299
N         11.80235       -0.45558       -3.69688
C         11.23481        0.70342       -4.57742
C         12.42275        1.60425       -4.96917
C         13.60408        0.94758       -5.69534
C         14.71044        1.95884       -6.02214
C         15.90818        1.32553       -6.73723
C         17.02298        2.32515       -7.06588
C         18.20518        1.68364       -7.79649
C         10.21095        1.46087       -3.71923
C          9.43300        2.53776       -4.48588
O          9.69078        2.90827       -5.61446
O          8.43983        2.98764       -3.71189
C          7.53661        3.99623       -4.29300
C          6.34729        3.33674       -4.97648
C          5.52047        2.43155       -4.05901
H         -0.17665        2.81886       -8.37945
H         -0.12742        1.29931       -7.46574
H          0.17788        1.29400       -9.21276
H          1.98327        2.66262       -7.11156
H          2.28431        2.65087       -8.84678
H          2.45605        0.12626       -8.78367
H          2.19438        0.16328       -7.04223
H          4.27481        1.58392       -6.78053
H          4.54441        1.49218       -8.51759
H          4.74802       -1.01488       -8.35731
H          4.46981       -0.92877       -6.61969
H          6.51838        0.49478       -6.36106
H          6.81251        0.41042       -8.09734
H          6.97589       -2.12612       -7.90741
H          6.82981       -1.98187       -6.16120
H          9.05936       -0.75538       -7.89724
H          9.20887       -2.23419       -6.95183
H          8.84348       -0.92914       -4.83390
H          8.60992        0.53830       -5.77913
H         10.89263        0.40409       -6.72133
H         12.37679       -2.44596       -4.36537
H         10.60756       -2.17928       -4.06974
H         12.81538       -0.31056       -3.59121
H         11.37261       -0.47179       -2.76469
H         12.78480        2.10388       -4.05214
H         11.99836        2.40175       -5.59506
H         13.26520        0.46127       -6.62248
H         14.05503        0.13535       -5.08898
H         15.04995        2.44788       -5.09255
H         14.28635        2.76099       -6.64970
H         15.56376        0.84436       -7.66920
H         16.32148        0.51341       -6.11256
H         17.37532        2.79598       -6.13261
H         16.60778        3.14223       -7.67933
H         18.66282        0.88498       -7.19407
H         18.98774        2.42160       -8.01637
H         17.89080        1.23894       -8.75225
H         10.72055        1.96440       -2.88130
H          9.46885        0.77984       -3.27512
H          8.11540        4.61849       -4.98633
H          7.22910        4.59084       -3.42340
H          6.69709        2.78226       -5.86138
H          5.71998        4.15474       -5.36613
H          6.11140        1.58300       -3.68621
H          4.65453        2.02054       -4.59318
H          5.14247        2.98260       -3.18584
