63

C          2.14568       -8.87329       -1.06429
O          3.05400       -8.91648       -2.15594
C          3.89639       -7.77967       -2.21246
C          4.78474       -7.94473       -3.43751
O          5.64348       -6.80825       -3.51792
C          6.45156       -6.82380       -4.67784
C          7.23981       -5.53600       -4.77512
O          8.25778       -5.50084       -3.76360
C          9.13807       -4.39407       -3.89239
C         10.13213       -4.47750       -2.73414
N         10.63192       -5.85277       -2.65404
C         11.89486       -6.26940       -2.50533
N         12.82422       -5.47633       -1.93891
C         14.24225       -5.45705       -2.30588
C         14.65760       -4.09775       -2.88333
O         14.44813       -3.10091       -1.85345
C         13.37380       -2.26956       -1.98639
O         12.65523       -2.21240       -2.96323
C         13.14605       -1.53836       -0.68703
S         12.24428       -2.69679        0.42830
C         16.13903       -4.09660       -3.25252
O         16.56129       -2.82438       -3.76295
C         16.19467       -2.55154       -5.05362
O         15.59107       -3.33371       -5.75879
C         16.60965       -1.15508       -5.44528
S         15.39980        0.06833       -4.81261
N         12.22217       -7.51218       -2.92658
C         13.15781       -8.43343       -2.25234
C         12.49114       -9.77702       -1.97285
H          1.53200       -9.77977       -1.12396
H          1.48724       -7.98719       -1.11995
H          2.67691       -8.85923       -0.09471
H          4.51905       -7.69735       -1.29914
H          3.30464       -6.84731       -2.29964
H          4.15720       -8.02260       -4.34540
H          5.37364       -8.87821       -3.35366
H          5.82780       -6.91174       -5.59029
H          7.14312       -7.69218       -4.66903
H          6.56409       -4.67111       -4.65115
H          7.70679       -5.47575       -5.77604
H          8.59567       -3.43280       -3.83661
H          9.67018       -4.43212       -4.86313
H          9.62786       -4.22178       -1.78937
H         10.96420       -3.77961       -2.89624
H          9.90875       -6.55003       -2.83578
H         12.49755       -4.72265       -1.32477
H         14.41886       -6.22951       -3.06362
H         14.85739       -5.69036       -1.42316
H         14.03998       -3.84037       -3.75436
H         12.55951       -0.62859       -0.84038
H         14.08998       -1.30420       -0.18246
H         11.00465       -2.41143       -0.03535
H         16.32800       -4.88348       -3.99797
H         16.76210       -4.26367       -2.36432
H         16.69271       -1.08792       -6.53460
H         17.56380       -0.88353       -4.97830
H         14.37186       -0.33031       -5.59935
H         11.57084       -7.94128       -3.57841
H         13.47345       -7.95755       -1.31482
H         14.05419       -8.57167       -2.87618
H         11.62507       -9.66439       -1.30733
H         13.20811      -10.45302       -1.48948
H         12.16023      -10.26304       -2.90203
