62

N          1.40567       -0.63755       -1.02727
C          2.72940       -0.40238       -0.44533
C          3.47922       -1.72646       -0.27204
C          4.89388       -1.54306        0.28095
C          5.66184       -2.86311        0.41754
C          7.07482       -2.65725        0.97683
C          7.93363       -3.90400        1.04377
O          8.09489       -4.50284       -0.19851
C          8.46795       -5.88670        0.01899
C          7.38934       -6.32740        1.04559
N          7.27161       -5.04976        1.88875
C          7.61588       -7.54909        1.93903
C          7.19071       -8.92268        1.36483
C          7.81669       -9.29245       -0.00430
C          6.96546       -8.93218       -1.22796
C          7.50519       -9.99426        2.41966
C          9.93095       -6.04638        0.44037
C         10.89438       -5.35060       -0.52794
C         12.36246       -5.47240       -0.11111
C         13.30280       -4.70146       -1.04136
C         14.77019       -4.76801       -0.61377
N         15.59182       -3.91645       -1.47854
H          0.97282        0.24162       -1.30895
H          0.77799       -1.06193       -0.34248
H          2.71062        0.13472        0.52575
H          3.29100        0.23819       -1.14370
H          3.51121       -2.23698       -1.24779
H          2.90103       -2.38420        0.40210
H          4.85159       -1.03805        1.26142
H          5.46475       -0.87129       -0.38265
H          5.72262       -3.36257       -0.56098
H          5.07095       -3.53589        1.07267
H          7.04313       -2.19996        1.97971
H          7.62937       -1.94682        0.34353
H          8.89566       -3.71240        1.55175
H          8.29854       -6.38239       -0.94463
H          6.42864       -6.40168        0.51762
H          7.74648       -5.16034        2.79220
H          6.28576       -4.82238        2.06928
H          7.03440       -7.40805        2.86601
H          8.67469       -7.58894        2.24481
H          6.09408       -8.89190        1.23176
H          7.97785      -10.38062       -0.01830
H          8.82756       -8.86011       -0.08833
H          6.00618       -9.46818       -1.20391
H          7.47518       -9.21476       -2.15892
H          6.72912       -7.86026       -1.30176
H          8.59162      -10.10131        2.56164
H          7.11476      -10.97062        2.10528
H          7.06106       -9.75622        3.39671
H         10.15505       -7.12366        0.48405
H         10.10233       -5.67126        1.46586
H         10.62641       -4.28526       -0.60935
H         10.75667       -5.77027       -1.53895
H         12.65301       -6.53658       -0.07800
H         12.48082       -5.09286        0.91975
H         13.00538       -3.64111       -1.08655
H         13.20439       -5.09145       -2.06992
H         15.09254       -5.82972       -0.58107
H         14.86346       -4.38330        0.41484
H         15.65299       -4.30875       -2.41958
H         16.54777       -3.86010       -1.12791
