88

C          0.14364       -2.97776       -3.24858
C          1.51894       -2.56078       -2.72365
C          2.39051       -3.74873       -2.30441
C          3.75519       -3.34048       -1.74179
C          4.65017       -4.52977       -1.38007
C          6.00298       -4.12074       -0.78868
C          6.93574       -5.30579       -0.52093
C          8.27871       -4.90225        0.09638
C          9.23663       -6.08271        0.28157
C         10.57451       -5.69382        0.92146
C         11.54823       -6.87801        0.99725
C         12.85546       -6.51187        1.67059
O         13.77042       -7.65333        1.53377
C         14.99747       -7.51234        2.09168
S         14.98199       -8.12250        3.92878
C         14.49206       -9.87950        3.61093
C         14.47527      -10.61922        4.84905
C         14.47745      -11.23836        5.88728
C         16.76602       -8.27270        4.29232
C         17.37158       -6.93396        4.71792
C         18.88328       -7.07839        4.95435
C         19.54649       -5.76508        5.38324
C         21.06544       -5.89158        5.54127
C         21.74809       -4.57906        5.93809
C         23.27489       -4.68535        6.00655
C         23.96229       -3.36846        6.37953
C         25.49162       -3.45413        6.38260
C         26.17668       -2.12748        6.72427
C         27.70626       -2.19861        6.69772
C         28.38676       -0.86609        7.02738
C         29.91438       -0.93747        6.97640
H         -0.45205       -2.10735       -3.55637
H         -0.42869       -3.51734       -2.47934
H          0.23497       -3.64348       -4.11971
H          1.39605       -1.87854       -1.86550
H          2.04972       -1.98105       -3.49786
H          2.53770       -4.41345       -3.17411
H          1.85022       -4.35037       -1.55213
H          3.60688       -2.70717       -0.84953
H          4.27824       -2.70655       -2.47939
H          4.81762       -5.14346       -2.28258
H          4.12161       -5.18290       -0.66376
H          5.83751       -3.56349        0.14991
H          6.50263       -3.41560       -1.47583
H          7.11786       -5.84278       -1.46835
H          6.43113       -6.02799        0.14435
H          8.10160       -4.41360        1.07033
H          8.76018       -4.14156       -0.54264
H          9.42766       -6.55032       -0.69986
H          8.75117       -6.85848        0.89858
H         10.39323       -5.28882        1.93172
H         11.03589       -4.87778        0.33955
H         11.76720       -7.24311       -0.01856
H         11.08055       -7.71300        1.54360
H         12.71606       -6.29460        2.74375
H         13.33419       -5.64171        1.19154
H         15.37267       -6.47820        2.16664
H         15.72372       -8.17703        1.60116
H         15.19965      -10.29449        2.87613
H         13.49851       -9.80351        3.14247
H         14.46287      -11.80284        6.79848
H         17.25011       -8.69178        3.39623
H         16.81435       -9.01992        5.09911
H         16.87571       -6.57785        5.63403
H         17.20080       -6.16920        3.94282
H         19.36127       -7.44361        4.02938
H         19.06123       -7.85103        5.72111
H         19.10098       -5.42111        6.33213
H         19.32310       -4.98294        4.63690
H         21.49762       -6.25193        4.59129
H         21.29337       -6.66695        6.29294
H         21.35778       -4.24300        6.91435
H         21.47282       -3.79276        5.21349
H         23.65599       -5.02809        5.02838
H         23.55778       -5.46709        6.73275
H         23.61146       -3.04087        7.37370
H         23.64559       -2.58182        5.67234
H         25.83692       -3.79618        5.39105
H         25.81454       -4.22909        7.09938
H         25.84390       -1.79088        7.72181
H         25.83797       -1.35179        6.01495
H         28.03812       -2.53843        5.70063
H         28.05033       -2.96955        7.40960
H         28.06521       -0.53358        8.02878
H         28.02992       -0.09521        6.32352
H         30.30232       -1.67466        7.69514
H         30.37229        0.03207        7.21527
H         30.26569       -1.23488        5.97714
