58

N          1.43487        0.34675       -0.27864
C          2.83478        0.09827        0.04970
C          3.03935       -1.40228        0.32938
C          4.50812       -1.70135        0.58668
N          4.82801       -3.15333        0.90060
C          4.25562       -3.65775        2.20793
C          4.88861       -5.02600        2.53951
C          6.37053       -4.87272        2.94789
C          7.01857       -6.17174        3.43702
C          8.52901       -6.02156        3.63809
C          9.19350       -7.29317        4.18983
N         10.64021       -7.18390        4.25520
C         11.35197       -6.56471        5.26277
C         12.68463       -6.53749        4.89495
C         12.78472       -7.15382        3.61571
C         11.50967       -7.53669        3.24272
N          4.72010       -5.98774        1.45050
C          5.09160       -5.51460        0.11699
C          4.50413       -4.12515       -0.21765
C          4.71190       -6.51605       -0.95575
C          5.71503       -7.16404       -1.68671
C          5.38528       -8.09707       -2.67176
C          4.04570       -8.39296       -2.93484
C          3.03719       -7.75249       -2.20978
C          3.36767       -6.81705       -1.22740
H          1.32360        1.24247       -0.75166
H          0.85379        0.38211        0.55938
H          3.21924        0.68590        0.90829
H          3.44179        0.38630       -0.82290
H          2.65938       -1.95950       -0.53846
H          2.42502       -1.68811        1.19795
H          4.89130       -1.12429        1.44137
H          5.12037       -1.45069       -0.29247
H          5.85254       -3.18781        1.01913
H          3.16968       -3.73644        2.07528
H          4.47353       -2.90054        2.97355
H          4.33861       -5.42062        3.40767
H          6.43987       -4.10135        3.73228
H          6.97455       -4.49272        2.10058
H          6.80963       -6.97022        2.70829
H          6.53674       -6.47915        4.38094
H          8.74506       -5.18418        4.32163
H          9.00974       -5.76912        2.67810
H          8.94719       -8.15804        3.55513
H          8.81222       -7.51862        5.19792
H         10.85215       -6.21070        6.15923
H         13.49927       -6.13731        5.49011
H         13.69128       -7.32271        3.04311
H         11.14906       -8.04669        2.35488
H          3.80505       -6.43506        1.45168
H          6.19243       -5.41345        0.09193
H          3.41172       -4.15507       -0.31077
H          4.93345       -3.72053       -1.14417
H          6.76400       -6.94271       -1.47830
H          6.17629       -8.59613       -3.23202
H          3.78771       -9.12242       -3.70279
H          1.98986       -7.97893       -2.41098
H          2.56112       -6.32923       -0.67326
