41

C          5.72360       -1.20519       -2.26161
C          5.09281       -1.34718       -1.23833
C          4.35879       -1.49559        0.01218
C          5.18738       -1.07289        1.24505
C          5.61777        0.39733        1.18478
C          6.51243        0.80018        2.35530
O          6.76262        2.19557        2.46072
C          7.50002        2.72782        1.37953
C          7.83015        4.17948        1.69472
C          8.68325        4.91470        0.63901
C          8.08946        4.87539       -0.79040
C          6.68075        5.45935       -0.94858
C          8.95911        6.34759        1.12012
N          8.74014        1.92097        1.23018
C          8.89176        0.72365        1.78512
N         10.10125        0.11154        1.85474
I         11.83123        0.86317        1.06185
N          7.82414        0.10159        2.32174
H          6.24809       -1.10744       -3.18905
H          4.04529       -2.54467        0.12939
H          3.43047       -0.90215       -0.03699
H          6.07472       -1.72251        1.30403
H          4.58805       -1.25605        2.15073
H          4.73406        1.05393        1.21453
H          6.13127        0.57865        0.22751
H          6.04459        0.52844        3.31225
H          6.93331        2.63915        0.43705
H          8.33453        4.20557        2.67280
H          6.86543        4.69253        1.82412
H          9.67185        4.41535        0.58374
H          8.09402        3.83766       -1.16791
H          8.78249        5.42112       -1.44926
H          5.92527        4.90615       -0.37104
H          6.36906        5.42429       -2.00025
H          6.63293        6.50950       -0.63107
H          8.02864        6.91864        1.24643
H          9.58780        6.88698        0.39926
H          9.47958        6.34951        2.08768
H          9.54311        2.34300        0.76396
H         10.10687       -0.89828        1.97059
H          7.99827       -0.62202        3.01119
