75

C          0.36200       -2.33881        0.19156
C          1.62446       -3.18360        0.38259
C          2.44966       -2.73378        1.59717
C          3.67604       -3.60943        1.80682
O          4.35647       -3.22671        3.05691
C          5.36878       -2.37323        2.96330
O          5.88105       -1.91106        1.95845
C          5.83814       -1.99632        4.33406
N          5.20209       -2.24835        5.49214
N          5.88516       -1.69056        6.46479
N          6.94471       -1.08642        5.93079
N          6.96201       -1.27290        4.58355
C          7.95799       -0.65869        3.68147
C          7.54807        0.75484        3.25329
C          8.64630        1.41507        2.41108
C          8.21744        2.77787        1.85472
C          9.34563        3.51710        1.12651
C          8.88796        4.82909        0.48042
C         10.02941        5.63576       -0.14838
C          9.55149        6.89790       -0.87436
C         10.69220        7.76263       -1.42074
C         10.20509        8.97456       -2.22230
C         11.34165        9.87407       -2.71657
C         10.83210       11.03230       -3.58398
N         11.89053       11.94337       -4.00857
C         12.27421       13.08587       -3.34576
C         13.37498       13.62739       -4.00249
C         13.66895       12.77829       -5.09406
C         12.73991       11.74276       -5.07259
C          7.96612       -0.41898        6.73262
C          9.14439       -1.31967        7.08571
C          9.03689       -2.77196        7.26453
O          9.60442       -2.19885        6.05828
H         -0.20604       -2.67052       -0.68737
H          0.60825       -1.27684        0.04652
H         -0.30311       -2.41045        1.06424
H          2.24772       -3.12908       -0.52520
H          1.34525       -4.24363        0.50077
H          1.82863       -2.76907        2.50631
H          2.76803       -1.68706        1.46287
H          4.39500       -3.53223        0.98094
H          3.40736       -4.65992        1.97244
H          8.01468       -1.32713        2.81500
H          8.92181       -0.69301        4.20403
H          7.33660        1.37432        4.14102
H          6.61308        0.68786        2.67734
H          8.92167        0.74897        1.57621
H          9.55726        1.53313        3.02317
H          7.84213        3.41055        2.67799
H          7.36515        2.63453        1.16877
H          9.77826        2.85970        0.35241
H         10.16237        3.72392        1.84019
H          8.37960        5.45214        1.23708
H          8.12741        4.60762       -0.28872
H         10.58660        4.99692       -0.85590
H         10.75179        5.91595        0.63837
H          8.93512        7.50374       -0.18701
H          8.88102        6.60870       -1.70252
H         11.34826        7.14571       -2.05939
H         11.32314        8.10633       -0.58259
H          9.51242        9.56956       -1.60150
H          9.61110        8.62234       -3.08405
H         12.06742        9.28271       -3.29841
H         11.89668       10.28843       -1.85944
H         10.08497       11.62474       -3.03520
H         10.33262       10.64643       -4.48571
H         11.73264       13.42825       -2.46978
H         13.89071       14.54080       -3.72473
H         14.45870       12.90402       -5.82732
H         12.61551       10.88910       -5.73165
H          7.44780       -0.08732        7.64218
H          8.30455        0.47118        6.18534
H          9.92813       -0.77532        7.62652
H          8.07673       -3.27767        7.13465
H          9.75608       -3.27678        7.91339
