68

C          8.19914      -14.41048       -5.34941
C          7.82968      -13.03139       -5.89916
C          8.45099      -11.88027       -5.10166
C          8.08780      -10.49395       -5.64168
C          8.68843       -9.34687       -4.82305
C          8.32358       -7.95946       -5.35993
C          8.89527       -6.81373       -4.51785
C          8.50576       -5.43189       -5.04951
C          9.02595       -4.25817       -4.19231
C         10.50877       -4.12278       -4.17351
N         11.30298       -3.96802       -3.09866
C         12.64162       -3.85376       -3.45482
C         12.67168       -3.94070       -4.83581
N         11.34164       -4.10020       -5.22883
C         13.75414       -3.87577       -5.81962
C         15.05944       -4.28526       -5.50605
C         16.03814       -4.21701       -6.49905
N         15.80926       -3.77827       -7.74566
C         14.56313       -3.38277       -8.03888
C         13.50957       -3.40944       -7.12335
C         13.72115       -3.63401       -2.41954
O         14.58726       -2.57082       -2.72219
C         13.99121       -1.26578       -2.57657
C         15.05788       -0.21292       -2.81978
C         14.51133        1.21233       -2.67645
C         15.57937        2.28850       -2.89627
C         15.04178        3.71579       -2.75417
C         16.11535        4.78558       -2.96225
H          7.73624      -15.21457       -5.93708
H          7.86594      -14.52590       -4.30737
H          9.28765      -14.56864       -5.36844
H          6.73271      -12.91672       -5.90358
H          8.14683      -12.95546       -6.95286
H          9.54952      -11.99381       -5.09442
H          8.13165      -11.95601       -4.04725
H          6.98924      -10.38740       -5.66355
H          8.42202      -10.41025       -6.69055
H          9.78740       -9.45226       -4.79712
H          8.34931       -9.43189       -3.77590
H          7.22531       -7.86130       -5.40283
H          8.67857       -7.86267       -6.40073
H          9.99557       -6.90857       -4.47473
H          8.53871       -6.91314       -3.47781
H          7.41001       -5.34178       -5.08875
H          8.84525       -5.31365       -6.09328
H          8.68334       -4.37014       -3.15247
H          8.59966       -3.30906       -4.55939
H         10.95822       -3.93139       -2.14240
H         11.04227       -4.23515       -6.19124
H         15.31908       -4.65832       -4.51698
H         17.06059       -4.53563       -6.28000
H         14.39674       -3.01807       -9.05603
H         12.53088       -3.03229       -7.42844
H         14.34798       -4.53552       -2.33842
H         13.23080       -3.49309       -1.43342
H         13.57257       -1.17420       -1.55497
H         13.15819       -1.14874       -3.29739
H         15.47706       -0.35627       -3.82847
H         15.88220       -0.37440       -2.10773
H         14.07226        1.33960       -1.67160
H         13.68623        1.36758       -3.39367
H         16.02362        2.16347       -3.89910
H         16.40324        2.13556       -2.17798
H         14.59174        3.83444       -1.75407
H         14.22192        3.86850       -3.47634
H         16.93154        4.67730       -2.23305
H         15.70096        5.79636       -2.84938
H         16.55761        4.71726       -3.96703
