50

C          0.88347       -0.29905        5.48881
C          2.34376       -0.72013        5.66186
C          2.95867       -1.29424        4.38138
C          4.42189       -1.71693        4.54310
C          5.03192       -2.29226        3.26099
C          6.50019       -2.70461        3.41906
C          7.08881       -3.29726        2.13351
C          8.60628       -3.57111        2.17291
P          9.16047       -4.74779        3.44338
C          8.34683       -6.36799        3.25233
C          8.49128       -7.37021        4.43434
C          7.43436       -7.12020        5.53065
F          7.45211       -5.82120        5.94764
F          6.18647       -7.37295        5.04838
F          7.63880       -7.90217        6.59724
O          8.42134       -8.69761        3.97780
C         10.96808       -4.95099        3.44367
C         11.77805       -3.73435        3.93172
C         11.45477       -3.27946        5.37563
C         11.36450       -4.38241        6.32409
C         11.27535       -5.31938        7.08600
H          0.47099        0.11034        6.42056
H          0.25467       -1.15168        5.19297
H          0.78087        0.47325        4.71233
H          2.41992       -1.46899        6.46816
H          2.94119        0.14569        5.99363
H          2.88193       -0.54568        3.57363
H          2.36209       -2.16172        4.04877
H          4.49837       -2.46443        5.35227
H          5.01773       -0.84794        4.87295
H          4.95240       -1.54883        2.44960
H          4.44099       -3.16532        2.93414
H          6.57421       -3.42952        4.24977
H          7.09441       -1.82494        3.72350
H          6.92556       -2.59682        1.29988
H          6.54884       -4.21647        1.85539
H          9.16594       -2.64169        2.37071
H          8.97037       -3.96387        1.20958
H          8.79331       -4.23889        4.70470
H          8.80952       -6.84110        2.37237
H          7.28720       -6.19172        3.01282
H          9.47436       -7.26855        4.92006
H          7.50166       -8.91623        3.74235
H         11.25734       -5.23568        2.42033
H         11.17320       -5.81351        4.09779
H         11.65665       -2.88061        3.24986
H         12.83536       -4.02904        3.87715
H         10.51448       -2.70159        5.40061
H         12.23492       -2.57369        5.70055
H         11.23138       -6.11576        7.80117
