92

C          0.98892       -2.43354        0.34240
C          2.51214       -2.29488        0.27608
C          3.10554       -1.52594        1.46141
C          4.62946       -1.38564        1.39974
C          5.23224       -0.75883        2.65964
C          6.76394       -0.76197        2.67966
C          7.34001       -0.31458        4.02511
C          8.87096       -0.33336        4.08648
C          9.38796       -0.09928        5.50890
C         10.89749       -0.20778        5.63139
O         11.21267       -0.23483        7.04073
C         12.56728       -0.44492        7.33725
N         12.67824       -0.92894        8.71026
C         12.59547       -2.39200        9.05192
C         11.98717       -3.27165        7.95543
C         10.45181       -3.22053        7.85943
C          9.98295       -3.86954        6.55473
S          8.16928       -3.88436        6.47552
C          7.87862       -4.12773        4.74887
S          9.03853       -4.35475        3.60733
N          6.50814       -4.12838        4.45424
C          5.44841       -3.68655        5.25668
N          4.29584       -3.83101        4.66138
C          4.58199       -4.39784        3.42356
C          5.92559       -4.58002        3.26618
C         14.01044       -2.81529        9.47106
C         14.40388       -2.04577       10.73217
N         13.81970       -0.69450       10.71982
C         13.17333       -0.12963        9.68160
N         13.04567        1.21313        9.66609
C         11.97165        2.01722        9.06693
C         11.39085        2.98853       10.09736
O         10.47064        3.78605        9.39815
C          9.81950        4.77307       10.21588
C          8.84474        5.54860        9.34585
C          8.07846        6.62710       10.12080
C          7.09239        7.40619        9.24151
C          6.31149        8.47584       10.00790
H          0.59540       -2.99329       -0.51729
H          0.49957       -1.44799        0.34936
H          0.67498       -2.96189        1.25547
H          2.79728       -1.79396       -0.66457
H          2.97327       -3.29719        0.23128
H          2.82776       -2.03474        2.40153
H          2.64403       -0.52430        1.51721
H          4.91369       -0.79458        0.51173
H          5.07711       -2.38350        1.25250
H          4.85953       -1.30819        3.54005
H          4.86338        0.27559        2.77441
H          7.15250       -0.11739        1.87214
H          7.12864       -1.77977        2.45573
H          6.94507       -0.97540        4.81670
H          6.97383        0.69745        4.27105
H          9.28336        0.42386        3.39810
H          9.23392       -1.31058        3.72531
H          8.93562       -0.84849        6.17852
H          9.06530        0.88667        5.88031
H         11.40955        0.64284        5.14563
H         11.27035       -1.13867        5.16218
H         13.16743        0.47778        7.24981
H         13.01050       -1.19436        6.65819
H         11.93472       -2.45095        9.93475
H         12.29739       -4.30314        8.18118
H         12.44415       -3.05021        6.97889
H         10.10331       -2.18026        7.89641
H         10.02009       -3.74072        8.72918
H         10.33673       -4.90657        6.45982
H         10.34079       -3.32216        5.67070
H          5.61144       -3.24606        6.23586
H          3.79147       -4.63183        2.71746
H          6.53421       -4.98177        2.46662
H         14.70703       -2.61414        8.64336
H         14.05541       -3.89148        9.68126
H         15.49670       -1.96720       10.83070
H         14.02297       -2.55860       11.62720
H         13.92899       -0.13221       11.55748
H         13.70144        1.71967       10.25555
H         11.18946        1.34891        8.68996
H         12.35810        2.59349        8.21289
H         12.20098        3.60636       10.54574
H         10.90618        2.42877       10.92409
H         10.58127        5.44554       10.65674
H          9.29211        4.27036       11.05000
H          8.13487        4.83633        8.89467
H          9.40221        6.00748        8.51338
H          8.79214        7.33361       10.57968
H          7.52904        6.16268       10.95823
H          6.38757        6.69732        8.77516
H          7.64361        7.87531        8.40928
H          5.71892        8.03342       10.82236
H          5.61728        9.01354        9.34819
H          6.98573        9.22037       10.45647
