76

C          1.81477        0.19129        1.50801
C          2.98105       -0.00323        1.25356
C          4.38018       -0.20757        0.90519
C          4.69671        0.26805       -0.52697
C          6.16670        0.06198       -0.90593
C          6.48968        0.61266       -2.30452
O          5.62462        0.11123       -3.33710
C          5.84687       -1.25849       -3.64417
C          7.25660       -1.47738       -4.21250
N          8.21739       -1.00059       -3.12372
C          7.95671        0.43150       -2.72574
C          9.66158       -1.30673       -3.35431
C         10.11828       -2.13008       -2.11965
O          9.22973       -2.43431       -1.31683
C         11.52003       -2.51584       -1.96639
C         11.88381       -3.27905       -0.83548
C         13.20578       -3.66717       -0.65785
C         14.17652       -3.30308       -1.60074
C         13.82573       -2.54781       -2.72576
C         12.50368       -2.15322       -2.91016
C          7.49200       -0.77729       -5.55448
C          6.87355       -1.56247       -6.72203
C          7.06096       -0.81713       -8.04492
S          6.28703       -1.77216       -9.38111
C          7.19819       -1.18011      -10.81496
S          8.42610       -0.06932      -10.74888
N          6.75106       -1.77629      -11.96129
C          5.60944       -2.66289      -11.98614
C          5.80989       -4.03665      -12.16468
C          4.70863       -4.89103      -12.22872
C          3.41334       -4.37643      -12.11706
C          3.21806       -3.00274      -11.94714
C          4.31372       -2.14051      -11.88701
C          7.41710       -1.57174      -13.22822
C          6.75012       -0.88429      -14.24473
C          7.36403       -0.73346      -15.48973
C          8.63407       -1.26850      -15.71601
C          9.29270       -1.95987      -14.69439
C          8.68601       -2.11592      -13.44870
H          0.78619        0.35773        1.75028
H          4.63065       -1.27751        1.01030
H          5.01749        0.32830        1.62944
H          4.43734        1.33467       -0.61555
H          4.04392       -0.26206       -1.23490
H          6.43195       -1.00628       -0.81295
H          6.81807        0.58962       -0.18908
H          6.29428        1.69617       -2.30040
H          5.09776       -1.53179       -4.39722
H          5.68332       -1.90690       -2.76363
H          7.44860       -2.55915       -4.30143
H          8.05026       -1.59587       -2.25827
H          8.20166        1.06421       -3.58753
H          8.63880        0.66916       -1.89846
H         10.23446       -0.38011       -3.47614
H          9.77264       -1.90324       -4.26936
H         11.11483       -3.55416       -0.11397
H         13.48741       -4.25507        0.21568
H         15.21305       -3.61009       -1.45724
H         14.58493       -2.26818       -3.45563
H         12.24724       -1.56483       -3.79242
H          8.57076       -0.65744       -5.74405
H          7.06121        0.23439       -5.52065
H          5.80032       -1.72920       -6.53524
H          7.33664       -2.56021       -6.79109
H          8.12054       -0.68336       -8.31369
H          6.60257        0.18183       -8.00598
H          6.82506       -4.42335      -12.25717
H          4.86285       -5.96132      -12.36942
H          2.55469       -5.04638      -12.17104
H          2.20810       -2.59849      -11.87180
H          4.17549       -1.06646      -11.76116
H          5.75899       -0.46987      -14.05964
H          6.84698       -0.19379      -16.28367
H          9.11083       -1.14896      -16.68926
H         10.28318       -2.38140      -14.86878
H          9.19202       -2.64697      -12.64256
