53

C          0.87719        0.49584       -0.04831
C          2.39846        0.34710        0.03132
C          2.85292       -0.79366        0.94916
C          4.37561       -0.93884        1.03019
C          4.84471       -2.09984        1.91346
C          6.37049       -2.22659        1.97180
C          6.86485       -3.42667        2.78688
C          8.39469       -3.52563        2.81339
C          8.90604       -4.77095        3.55535
C         10.43336       -4.81693        3.51521
S         11.09414       -6.22996        4.48173
C         10.43288       -7.62769        3.35524
O         10.81365       -7.75173        2.22641
O          9.56662       -8.29721        4.07469
C          8.85038       -9.42105        3.38844
C          7.62089       -8.90715        2.67395
C         12.88619       -6.36424        3.98825
C         13.55706       -5.01140        4.22472
O         13.21813       -4.58634        5.54012
C         13.47809       -7.51423        4.80336
H          0.58910        1.31821       -0.71708
H          0.44316        0.70521        0.94060
H          0.40455       -0.42186       -0.42882
H          2.84374        1.29349        0.38233
H          2.80599        0.18017       -0.98032
H          2.41280       -1.74267        0.59474
H          2.44472       -0.63224        1.96248
H          4.81220        0.00369        1.40479
H          4.78179       -1.07414        0.01212
H          4.41322       -3.04327        1.53493
H          4.44590       -1.97265        2.93499
H          6.79792       -1.29939        2.39150
H          6.76643       -2.30323        0.94392
H          6.44515       -4.35508        2.36138
H          6.48117       -3.36147        3.81941
H          8.81401       -2.62121        3.28554
H          8.77638       -3.53921        1.77824
H          8.48475       -5.67364        3.08397
H          8.55513       -4.76022        4.59947
H         10.87633       -3.94161        4.01158
H         10.82821       -4.90279        2.49287
H          8.61023      -10.08733        4.22359
H          9.56939       -9.90270        2.71478
H          6.94815       -8.38150        3.36348
H          7.07521       -9.76684        2.26008
H          7.88125       -8.24585        1.83730
H         12.86815       -6.59118        2.91159
H         13.23886       -4.27834        3.46277
H         14.64439       -5.16395        4.10313
H         13.72074       -3.78800        5.76687
H         13.47936       -7.28740        5.87641
H         14.51695       -7.67047        4.48211
H         12.94297       -8.45890        4.63816
