44

C          2.78097        1.61970        0.57718
N          2.39969        0.20847        0.45773
C          3.23594       -0.74857        0.86050
N          4.40245       -0.49448        1.47258
C          5.26373       -1.64543        1.72120
C          4.36962       -2.89904        1.76305
S          2.91527       -2.44197        0.67226
C          5.06916       -4.16044        1.23140
C          5.45719       -4.17967       -0.25398
O          6.19599       -5.35508       -0.48430
Si         6.76154       -5.84746       -2.00595
C          7.57741       -7.49428       -1.66866
C          5.30624       -6.00554       -3.18706
C          7.99104       -4.57776       -2.65171
N          3.77838       -3.05139        3.12474
N          2.76506       -4.05223        3.06625
N          4.71293       -3.29741        4.16322
C          1.10791       -0.10660       -0.15960
H          3.73004        1.81728        0.05682
H          2.86409        1.92006        1.63271
H          2.00418        2.23046        0.10861
H          4.72061        0.45162        1.65573
H          5.78422       -1.52580        2.68037
H          6.01694       -1.73556        0.92428
H          4.42895       -5.03321        1.42132
H          5.99574       -4.30914        1.81134
H          6.05025       -3.27996       -0.51650
H          4.54100       -4.14831       -0.87492
H          6.85693       -8.21885       -1.26496
H          8.39636       -7.38942       -0.94388
H          7.99810       -7.91742       -2.59195
H          4.56452       -6.72623       -2.81477
H          5.64994       -6.36245       -4.16890
H          4.79576       -5.04617       -3.35538
H          8.83901       -4.45522       -1.96324
H          7.53058       -3.59121       -2.80825
H          8.39629       -4.89949       -3.62228
H          2.08036       -3.82353        3.78838
H          3.15524       -4.96965        3.31145
H          5.00289       -2.42888        4.60778
H          5.52478       -3.85685        3.88315
H          0.33406        0.53860        0.27409
H          0.84077       -1.15035        0.04147
H          1.14825        0.05373       -1.24644
