73

N          0.32207        3.01151        0.67630
C          1.62689        3.59215        0.36452
C          2.74708        2.67706        0.86850
C          4.14621        3.18435        0.50888
C          5.25599        2.28567        1.06523
C          6.68210        2.69624        0.69566
S          7.03361        4.46302        1.06539
C          6.86902        4.54688        2.88958
C          6.58395        5.95724        3.36384
O          5.75580        6.01134        4.52651
C          5.22090        6.51447        3.29015
C          8.83717        4.56445        0.77309
C          9.39831        5.94899        1.09757
C         10.90525        6.02527        0.80385
C         11.48635        7.40490        1.13827
C         13.01119        7.47272        1.00438
C         13.58128        8.85898        1.32507
C         15.11267        8.90823        1.32032
C         15.67983       10.30609        1.58934
C         17.21062       10.34708        1.63559
C         17.77960       11.75117        1.86593
C         19.30993       11.78782        1.89816
C         19.86260       13.20577        2.10031
N         21.31692       13.26696        2.09278
C         22.13214       13.06128        3.18524
C         23.44752       13.09723        2.75756
C         23.42871       13.32474        1.35313
C         22.10272       13.42049        0.97042
H         -0.42522        3.50084        0.18500
H          0.11316        3.08039        1.67318
H          1.78293        4.61512        0.77143
H          1.69861        3.68145       -0.73126
H          2.58770        1.66994        0.45235
H          2.66431        2.57308        1.96513
H          4.26641        4.21538        0.89112
H          4.24710        3.26028       -0.58754
H          5.13414        1.25964        0.68082
H          5.16224        2.19336        2.15931
H          6.85223        2.64195       -0.39058
H          7.44477        2.09242        1.20715
H          7.77493        4.11354        3.33657
H          6.00973        3.90660        3.13178
H          7.43305        6.64835        3.37649
H          5.09365        7.59898        3.24417
H          4.41057        5.91826        2.85679
H          8.93976        4.32803       -0.29754
H          9.31428        3.76393        1.35822
H          9.24049        6.18105        2.16238
H          8.86030        6.71605        0.51792
H         11.09065        5.78765       -0.25697
H         11.42916        5.25241        1.39185
H         11.20467        7.67592        2.17105
H         11.02112        8.16442        0.48667
H         13.30713        7.18061       -0.01792
H         13.46602        6.72527        1.67771
H         13.21155        9.18554        2.31316
H         13.18752        9.59137        0.59864
H         15.48918        8.54305        0.34871
H         15.50021        8.20413        2.07760
H         15.27554       10.68703        2.54391
H         15.31869       11.00095        0.81082
H         17.61534        9.94267        0.69135
H         17.57073        9.67158        2.43108
H         17.37987       12.15612        2.81265
H         17.41286       12.42548        1.07175
H         19.71623       11.38195        0.95740
H         19.68872       11.13844        2.70408
H         19.50857       13.62110        3.05662
H         19.49187       13.87415        1.30796
H         21.70728       12.91661        4.17363
H         24.32311       12.98759        3.38933
H         24.28695       13.42547        0.69654
H         21.65113       13.59615       -0.00092
