56

C          6.44152        6.44151        1.06443
C          6.72591        4.97409        0.73379
C          7.08380        4.73953       -0.73843
C          7.38978        3.27508       -1.07007
C          7.75059        3.04021       -2.54057
C          8.06916        1.57796       -2.87278
C          8.43756        1.36892       -4.34492
C          8.77352       -0.08339       -4.70535
C          9.09095       -0.29746       -6.17251
O         10.32900        0.42742       -6.48444
C         10.69444        0.46315       -7.78364
S          9.72788        1.89731       -8.72301
C         10.03978        3.26568       -7.55556
C          9.36560        4.59052       -7.94778
C          7.87066        4.45123       -8.31767
C          6.96300        3.81536       -7.25885
C          9.60834        5.58720       -6.79982
C         10.83753        2.28450      -10.12345
C         10.65436        1.29406      -11.26010
F         10.99217        0.00989      -10.81599
H          6.17800        6.57046        2.12285
H          5.60602        6.83319        0.46504
H          7.31865        7.07453        0.86226
H          5.84675        4.36045        0.99358
H          7.54845        4.60529        1.36966
H          7.95587        5.36395       -1.00386
H          6.25375        5.09432       -1.37531
H          6.51845        2.65083       -0.80552
H          8.21832        2.92201       -0.43165
H          8.61968        3.66993       -2.80552
H          6.91855        3.38639       -3.18018
H          7.20156        0.94506       -2.61862
H          8.89820        1.22800       -2.23423
H          9.30080        2.01343       -4.58522
H          7.60078        1.71415       -4.97769
H          7.92055       -0.73825       -4.46274
H          9.61999       -0.44696       -4.10118
H          8.28403        0.09415       -6.81792
H          9.25426       -1.35954       -6.41372
H         10.44629       -0.42052       -8.39092
H         11.74980        0.75106       -7.87702
H         11.12931        3.36779       -7.44405
H          9.63976        2.86856       -6.61049
H          9.88469        4.98634       -8.83799
H          7.78047        3.88201       -9.25923
H          7.50368        5.46082       -8.55590
H          7.20164        2.75646       -7.07816
H          5.91705        3.85092       -7.58808
H          7.01855        4.33566       -6.29306
H          9.14041        5.25227       -5.86338
H          9.18404        6.56630       -7.05798
H         10.68057        5.72873       -6.60641
H         11.87412        2.30311       -9.75690
H         10.55431        3.29454      -10.45453
H         11.32658        1.55891      -12.08990
H          9.61684        1.26419      -11.62536
