93

C          0.61967      -15.43562       -3.30048
C          2.14265      -15.37420       -3.15679
C          2.79287      -14.30981       -4.04700
C          4.31753      -14.23857       -3.91532
C          4.95702      -13.15014       -4.78334
C          6.48148      -13.07227       -4.65222
C          7.11463      -11.96051       -5.49550
C          8.63856      -11.88081       -5.35907
C          9.27620      -10.75325       -6.17789
C         10.79819      -10.67589       -6.01989
C         11.45198       -9.54724       -6.82404
C         12.97300       -9.48712       -6.64949
C         13.64722       -8.35955       -7.43806
C         15.16797       -8.32984       -7.25438
C         15.85047       -7.20122       -8.03851
C         17.37249       -7.05700       -7.81687
C         18.23563       -7.84564       -8.81335
N         19.69322       -7.40048       -8.68821
C         20.41664       -7.93709       -7.47225
C         20.48036       -9.46266       -7.57841
C         19.05704      -10.07326       -7.69210
C         18.22418       -9.38515       -8.79886
C         18.32810      -10.15610       -6.33323
C         19.04211      -11.00592       -5.27120
N         19.44752      -12.30757       -5.81356
C         21.45547       -9.90964       -8.67849
O         21.16778       -9.21446       -9.90431
C         22.01902       -9.57589      -11.01273
C         21.67686       -8.68506      -12.19505
C         22.48434       -9.03082      -13.45300
C         22.20378       -8.08493      -14.62796
C         22.98212       -8.45418      -15.89294
H          0.18163      -16.19978       -2.64360
H          0.32565      -15.67801       -4.33271
H          0.15521      -14.47173       -3.04410
H          2.57581      -16.36079       -3.39371
H          2.40607      -15.17538       -2.10397
H          2.36000      -13.32255       -3.80649
H          2.52615      -14.50462       -5.10099
H          4.75353      -15.21902       -4.17662
H          4.58427      -14.06353       -2.85793
H          4.51908      -12.17146       -4.51914
H          4.69019      -13.32240       -5.84102
H          6.92304      -14.04393       -4.93632
H          6.74826      -12.91986       -3.59132
H          6.67190      -10.99030       -5.20860
H          6.84936      -12.10979       -6.55708
H          9.08266      -12.84615       -5.66063
H          8.90133      -11.74899       -4.29440
H          8.82856       -9.78847       -5.88116
H          9.02452      -10.88668       -7.24474
H         11.24411      -11.64110       -6.31902
H         11.04547      -10.54930       -4.95099
H         11.01088       -8.58062       -6.52438
H         11.21045       -9.67067       -7.89429
H         13.41059      -10.45502       -6.95350
H         13.21095       -9.37245       -5.57722
H         13.22202       -7.38859       -7.13043
H         13.40950       -8.46763       -8.51072
H         15.57492       -9.31109       -7.54688
H         15.40504       -8.21546       -6.18216
H         15.38082       -6.24964       -7.74650
H         15.64209       -7.31099       -9.11681
H         17.61376       -7.31934       -6.77629
H         17.63784       -5.99169       -7.93493
H         17.94704       -7.51513       -9.82409
H         19.73844       -6.37559       -8.70965
H         20.23787       -7.80041       -9.49412
H         19.88099       -7.60071       -6.57676
H         21.41551       -7.48017       -7.47129
H         20.92734       -9.82717       -6.64142
H         19.20439      -11.11560       -8.01081
H         17.17995       -9.71898       -8.74802
H         18.60205       -9.72012       -9.77541
H         17.33055      -10.58588       -6.52062
H         18.13450       -9.16247       -5.89958
H         18.38021      -11.06685       -4.38686
H         19.95463      -10.49497       -4.92300
H         18.62999      -12.89713       -5.98240
H         20.02544      -12.81155       -5.14116
H         21.36829      -10.99951       -8.83063
H         22.49663       -9.68943       -8.37628
H         21.85378      -10.64160      -11.25249
H         23.07537       -9.45392      -10.71138
H         21.86226       -7.63332      -11.91554
H         20.59870       -8.77631      -12.41023
H         22.26226      -10.06784      -13.75714
H         23.56227       -9.00554      -13.21810
H         22.45368       -7.05323      -14.32724
H         21.12223       -8.08448      -14.84591
H         24.06724       -8.44530      -15.71259
H         22.77606       -7.74902      -16.70886
H         22.71438       -9.46026      -16.24709
