44

O          2.53768        1.69160        1.79354
C          2.21059        0.81292        0.71141
C          2.94920        1.26842       -0.54244
C          4.49860        1.21461       -0.54952
C          5.01906        1.69261       -1.92771
C          6.53719        1.82094       -2.08801
C          6.93085        2.24504       -3.50892
C          8.44545        2.32585       -3.72349
C          8.83209        2.76098       -5.14088
C         10.34582        2.81711       -5.37501
C         10.71988        3.26127       -6.79101
C          5.01904       -0.22036       -0.22460
S          6.19476       -0.12701        1.18041
C          5.91028        1.53018        1.35563
N          5.08285        2.09834        0.52736
C          4.71883        3.53811        0.60590
C          5.61549        4.30327        1.44843
C          6.34715        4.96453        2.14690
H          1.95213        1.49926        2.54199
H          1.13007        0.83788        0.49374
H          2.46253       -0.23238        0.97136
H          2.62462        2.28799       -0.80103
H          2.61885        0.63385       -1.37917
H          4.53382        2.64926       -2.18180
H          4.62800        0.97174       -2.66454
H          7.03275        0.86358       -1.85244
H          6.93912        2.55485       -1.36888
H          6.47330        3.22327       -3.73676
H          6.49774        1.53310       -4.23270
H          8.89721        1.34181       -3.50678
H          8.88351        3.02816       -2.99256
H          8.39342        3.75231       -5.35083
H          8.37676        2.06941       -5.87152
H         10.78069        1.82371       -5.17235
H         10.80188        3.50212       -4.64035
H         10.30725        2.57684       -7.54699
H         11.80902        3.28749       -6.92832
H         10.33335        4.26740       -7.01050
H          5.55030       -0.65730       -1.07749
H          4.21041       -0.89890        0.07071
H          6.40136        2.11837        2.13349
H          3.68720        3.58430        0.99170
H          4.72522        3.93579       -0.42026
H          6.99313        5.56052        2.76053
