81

N          0.33879        0.38808        0.85768
C          1.78504        0.26915        0.74102
C          2.25203        0.86641       -0.60355
C          3.77874        0.95641       -0.75762
N          4.07999        1.09482       -2.20426
C          4.46061        2.27493       -2.62615
S          4.77245        3.42142       -1.42957
C          4.61033        2.10921       -0.08836
C          4.10466        2.76185        1.21320
C          2.80653        3.57740        1.18822
C          2.55769        4.25987        2.54225
S          0.83723        4.80129        2.71624
C          0.06291        3.28525        3.27781
S          0.89358        1.96393        3.87125
N         -1.29410        3.35220        3.20623
C         -1.99237        4.45280        2.57372
C         -2.61172        5.42398        3.36594
C         -3.31799        6.46111        2.75287
C         -3.40780        6.52132        1.35972
C         -2.79324        5.54105        0.57405
C         -2.08547        4.50195        1.17748
C         -2.12884        2.29415        3.73536
C         -2.78108        1.43604        2.84586
C         -3.62511        0.44199        3.34515
C         -3.81723        0.31235        4.72296
C         -3.16536        1.18032        5.60462
C         -2.32057        2.17674        5.11473
C          6.05417        1.58428        0.13716
O          5.94658        0.52703        1.05841
C          7.19000       -0.15416        1.31610
C          6.90686       -1.31977        2.24668
C          8.16584       -2.12229        2.59563
C          7.86855       -3.31755        3.50780
C          9.10495       -4.15355        3.85113
C          8.79355       -5.34680        4.76016
C         10.02170       -6.19122        5.11671
C          9.68806       -7.39267        6.00468
H          0.07573        0.56591        1.83065
H         -0.15173       -0.44283        0.53208
H          2.16472       -0.76756        0.81798
H          2.22623        0.82111        1.58163
H          1.77609        1.84322       -0.76606
H          1.87736        0.21233       -1.40975
H          4.23314        0.01834       -0.40003
H          3.81944        0.35720       -2.85812
H          4.55521        2.49692       -3.68988
H          4.92744        3.40363        1.57189
H          4.02738        1.95872        1.96139
H          1.94585        2.93319        0.97685
H          2.83152        4.33811        0.39060
H          3.16416        5.16745        2.67178
H          2.75720        3.56972        3.37710
H         -2.53773        5.36249        4.45185
H         -3.79896        7.22281        3.36694
H         -3.96121        7.33210        0.88504
H         -2.86964        5.58330       -0.51296
H         -1.59656        3.73105        0.58069
H         -2.62461        1.54794        1.77269
H         -4.13681       -0.22889        2.65439
H         -4.47862       -0.46248        5.11115
H         -3.31790        1.08268        6.67970
H         -1.80203        2.85503        5.79222
H          6.68697        2.40775        0.52151
H          6.50334        1.23686       -0.81641
H          7.90871        0.55497        1.76727
H          7.61876       -0.50395        0.35685
H          6.16376       -1.98015        1.76981
H          6.43942       -0.93290        3.16640
H          8.90249       -1.46218        3.08491
H          8.64612       -2.48116        1.66864
H          7.11508       -3.96400        3.02440
H          7.40126       -2.95532        4.44002
H          9.86049       -3.51016        4.33510
H          9.57083       -4.51702        2.91815
H          8.04036       -5.98991        4.27097
H          8.31987       -4.98381        5.68951
H         10.76692       -5.55330        5.62147
H         10.50399       -6.54107        4.18811
H          9.23566       -7.07397        6.95564
H         10.58593       -7.97812        6.24479
H          8.97400       -8.06822        5.51023
