85

C          7.35823        1.95461        5.34151
C          6.98487        1.84519        3.86160
C          7.97251        2.56062        2.93238
C          7.58644        2.45636        1.45310
C          8.57047        3.15924        0.53287
O          8.11179        3.01841       -0.81701
C          8.96836        3.61560       -1.76409
C          8.37750        3.30118       -3.13876
C          9.00866        4.01565       -4.34247
C         10.53457        3.77551       -4.41379
O         10.74564        2.40464       -4.56569
C         12.12303        2.03559       -4.73540
C         12.18451        0.53609       -4.97076
C         11.47948        0.07949       -6.25371
C         11.53097       -1.43736       -6.45910
C         10.85215       -1.90705       -7.74943
C         10.91545       -3.42360       -7.95747
C         10.26307       -3.89602       -9.26134
C         10.34685       -5.41025       -9.46839
C          8.70152        5.52250       -4.28484
N          8.99337        6.17165       -5.62484
C          8.28951        5.48171       -6.78041
C          8.64665        3.99594       -6.75624
O          8.31925        3.45161       -5.47452
C          7.86458        3.19618       -7.79876
C          8.29085        3.47481       -9.23859
C          7.45591        2.67514      -10.26244
N          7.62220        3.31147      -11.56940
C          6.54033        3.07254      -12.53235
C          6.83052        3.79591      -13.83554
O          8.05665        3.26178      -14.35016
O          8.13317        4.86483       -9.52942
H          6.63120        1.43255        5.97790
H          7.39216        3.00424        5.66938
H          8.34718        1.51500        5.53881
H          5.97519        2.26006        3.70338
H          6.92252        0.78257        3.57298
H          8.98205        2.13972        3.08341
H          8.04043        3.62337        3.22424
H          6.58572        2.88983        1.29442
H          7.51996        1.39802        1.15384
H          9.58341        2.72014        0.62831
H          8.65009        4.23542        0.78791
H          9.99524        3.20812       -1.67200
H          9.03701        4.71165       -1.57977
H          7.30323        3.53822       -3.12291
H          8.46407        2.22417       -3.33086
H         11.00325        4.17406       -3.48972
H         11.00688        4.33264       -5.25794
H         12.69748        2.32283       -3.83484
H         12.54383        2.59131       -5.59804
H         11.74656        0.02685       -4.09676
H         13.24688        0.24372       -4.99848
H         11.94373        0.58303       -7.12106
H         10.42876        0.41223       -6.22804
H         11.05860       -1.93657       -5.59519
H         12.58336       -1.77085       -6.46028
H         11.32187       -1.40212       -8.61246
H          9.79592       -1.58236       -7.74615
H         10.43285       -3.93037       -7.10326
H         11.97068       -3.74844       -7.94139
H         10.74186       -3.38124      -10.11187
H          9.20576       -3.57990       -9.27353
H         11.39206       -5.75225       -9.49567
H          9.87363       -5.71542      -10.41153
H          9.84443       -5.95350       -8.65422
H          9.29414        6.05100       -3.52689
H          7.63355        5.67991       -4.08843
H         10.00852        6.14984       -5.79781
H          8.72295        7.16237       -5.59656
H          8.59211        5.96245       -7.71773
H          7.21246        5.62667       -6.62350
H          9.72954        3.87308       -6.95866
H          6.78778        3.39906       -7.68199
H          8.02635        2.13284       -7.56556
H          9.35990        3.19415       -9.35473
H          6.39145        2.74996       -9.98799
H          7.73199        1.60474      -10.23846
H          8.50335        3.03196      -12.00681
H          5.60062        3.45938      -12.10932
H          6.39565        1.99513      -12.74186
H          6.92382        4.88078      -13.64757
H          5.99500        3.63034      -14.53747
H          8.27152        3.71292      -15.17992
H          7.94158        4.84594      -10.50676
