45

O          1.15850       -1.79929       -1.81282
C          2.14226       -1.39245       -0.84325
C          3.31838       -0.73788       -1.59269
C          2.89931        0.52389       -2.32481
N          1.77199        0.46852       -3.06135
N          1.23918        1.43569       -3.79328
C          1.88518        2.60447       -3.83261
C          3.09650        2.80492       -3.10333
C          3.58111        1.74632       -2.34015
C          3.80105        4.12774       -3.07094
C          3.41031        4.98279       -1.86024
C          2.13416        4.85928       -1.14073
O          3.35646        4.31958       -0.59298
C          1.26089        3.65708       -4.69778
C          1.88144        3.69694       -6.12671
C          1.37659        4.88792       -6.90625
C          2.04980        6.11690       -6.83757
C          1.56431        7.23605       -7.51635
C          0.39560        7.13814       -8.27687
C         -0.28055        5.91800       -8.35583
C          0.20615        4.80067       -7.67299
C          4.50712       -0.52522       -0.64775
H          0.40060       -2.20363       -1.36110
H          2.52519       -2.26816       -0.29749
H          1.70944       -0.68592       -0.11300
H          3.62002       -1.45615       -2.37798
H          1.21531       -0.40482       -2.99450
H          4.48764        1.86698       -1.75079
H          3.60469        4.71165       -3.97968
H          4.88799        3.96010       -3.02356
H          3.92249        5.95110       -1.84206
H          1.39709        4.11138       -1.45115
H          1.72927        5.72402       -0.60944
H          1.37286        4.64439       -4.22847
H          0.18550        3.45293       -4.77671
H          1.63212        2.75750       -6.64166
H          2.97985        3.73669       -6.05463
H          2.97381        6.19731       -6.25831
H          2.10332        8.18224       -7.45964
H          0.01665        8.00935       -8.81139
H         -1.18736        5.83428       -8.95556
H         -0.32466        3.84860       -7.74432
H          4.27194        0.18549        0.15685
H          5.39348       -0.16448       -1.18388
H          4.78141       -1.47990       -0.18315
