80

C          1.21307        0.10109       -0.96243
C          2.57872        0.33710       -0.28375
C          2.53839        0.10332        1.25740
C          1.80000        1.03321        2.27551
C          2.45011        2.42330        2.34942
C          3.81627        2.55258        2.67069
C          4.44285        3.78962        2.74170
C          3.70943        4.95619        2.49088
C          2.35238        4.86705        2.17973
C          1.74229        3.60697        2.11976
O          4.41980        6.13920        2.58263
C          3.75854        7.34224        2.23766
C          4.78757        8.45044        2.45699
O          4.30668        9.71711        1.96729
C          4.64140        9.97587        0.59214
C          4.00102       11.29162        0.15420
C          4.41907       12.47893        1.03336
O          4.08654       13.75111        0.51543
C          2.73175       14.13289        0.75999
N          2.51367       14.17844        2.21408
C          3.05465       13.19857        2.97490
N          2.75111       13.13570        4.28317
C          3.38171       12.26007        5.27429
C          3.30684       12.91511        6.64003
C          2.13028       12.71631        7.51170
O          3.36532       12.01740        7.74364
N          3.86389       12.31516        2.39670
C          2.47262       15.49293        0.16556
C          3.36102       16.55173        0.38869
C          3.04061       17.80412       -0.14133
N          1.92669       18.04856       -0.84775
C          1.08922       17.02488       -1.05911
C          1.31515       15.73118       -0.57754
C          0.28900        1.11537        1.99422
C          1.95863        0.36126        3.66582
C          3.55934       -0.72175       -0.83540
C          3.10337        1.73177       -0.67541
H          0.76061       -0.84772       -0.63837
H          1.33944        0.05262       -2.05410
H          0.49517        0.90432       -0.75658
H          3.58672        0.03848        1.59316
H          2.12631       -0.90904        1.41186
H          4.41752        1.66261        2.86157
H          5.50203        3.87246        2.98699
H          1.75319        5.75563        1.98286
H          0.68218        3.56967        1.87269
H          2.87093        7.51643        2.87278
H          3.42239        7.32028        1.18313
H          5.73827        8.18475        1.96707
H          4.98483        8.58191        3.52974
H          4.28070        9.15962       -0.05465
H          5.74155       10.02675        0.49060
H          2.90499       11.19153        0.14239
H          4.33127       11.51089       -0.87131
H          5.51789       12.50161        1.12513
H          2.04147       13.38639        0.33135
H          2.32347       15.08443        2.63348
H          1.93095       13.65370        4.58622
H          4.43264       12.10698        4.98636
H          2.88727       11.27569        5.31511
H          3.89841       13.83159        6.75487
H          1.30062       12.08736        7.17080
H          1.88047       13.47733        8.25566
H          3.98766       11.35712        2.75721
H          4.28880       16.40551        0.94314
H          3.71145       18.65423        0.00730
H          0.19190       17.24784       -1.64228
H          0.59875       14.93335       -0.78207
H          0.04834        1.66807        1.07861
H         -0.23923        1.59928        2.82878
H         -0.12571        0.10417        1.88465
H          3.01342        0.19939        3.92635
H          1.45839       -0.61781        3.67718
H          1.50976        0.98627        4.45054
H          3.22281       -1.74177       -0.59666
H          4.56658       -0.59325       -0.41175
H          3.64161       -0.64453       -1.92935
H          2.42096        2.53371       -0.36578
H          3.21897        1.79338       -1.76812
H          4.08397        1.93879       -0.22298
