97

C          0.66675       -0.26744       -0.16856
C          2.19079       -0.14609       -0.10156
C          2.67035        0.94763        0.85823
C          4.19476        1.07773        0.92531
C          4.68477        2.16914        1.88244
C          6.21091        2.29328        1.92691
C          6.72496        3.37895        2.87790
C          8.25282        3.48986        2.89249
C          8.79753        4.56041        3.84358
C         10.32588        4.66322        3.81719
C         10.90197        5.72175        4.76348
C         12.42708        5.83496        4.67674
C         13.03501        6.88093        5.61682
C         14.55116        7.02337        5.44900
C         15.19130        8.05670        6.38216
C         16.69433        8.22074        6.13258
C         17.36278        9.25612        7.04659
C         18.86621        9.37954        6.76353
C         19.59067       10.37392        7.67077
N         21.12630       10.16191        7.50080
C         21.76121       11.49932        7.18975
C         20.61936       12.25530        6.51445
C         19.37346       11.88365        7.36716
C         19.15468       12.69919        8.66389
C         18.50091       14.08685        8.51174
C         17.12201       14.10823        7.82877
C         16.03503       13.39523        8.64482
S         14.62341       13.02888        7.57550
O         13.97320       14.25173        7.17488
O         15.03783       12.04180        6.59839
Cl        13.37827       12.05932        8.93067
C         20.97078       13.72510        6.29294
O         22.11215       13.73111        5.45756
C         22.54009       15.05383        5.08534
C         23.73324       14.93951        4.15135
C         24.24777       16.31059        3.70619
H          0.35434       -1.05889       -0.86387
H          0.20752        0.67347       -0.50683
H          0.24282       -0.50477        0.81860
H          2.58951        0.05758       -1.10983
H          2.62519       -1.11258        0.20541
H          2.27506        0.74297        1.86896
H          2.23373        1.91523        0.55344
H          4.58617        1.28112       -0.08717
H          4.62937        0.10838        1.22721
H          4.30385        1.96288        2.89813
H          4.24729        3.13864        1.58577
H          6.58671        2.49687        0.90858
H          6.64532        1.32093        2.21915
H          6.36182        3.17269        3.90006
H          6.28980        4.35266        2.59196
H          8.60889        3.70108        1.86865
H          8.68441        2.51057        3.16493
H          8.46094        4.34275        4.87232
H          8.36080        5.54012        3.58184
H         10.65384        4.88421        2.78605
H         10.76042        3.67918        4.06676
H         10.60757        5.48606        5.80113
H         10.45006        6.70275        4.53460
H         12.70985        6.07735        3.63712
H         12.87819        4.84984        4.88961
H         12.80177        6.61560        6.66293
H         12.55608        7.85908        5.43661
H         14.77066        7.29865        4.40226
H         15.02986        6.04122        5.60973
H         15.02216        7.76012        7.43192
H         14.69300        9.03200        6.25296
H         16.85460        8.51302        5.08036
H         17.19570        7.24495        6.25934
H         17.21605        8.96680        8.10164
H         16.86531       10.22970        6.91195
H         19.02489        9.66653        5.70842
H         19.32322        8.38134        6.89502
H         19.37687       10.14604        8.72513
H         21.27041        9.51502        6.71455
H         21.53791        9.71657        8.32838
H         22.64681       11.35577        6.56250
H         22.05930       11.95955        8.14143
H         20.48227       11.82168        5.50818
H         18.47379       11.96259        6.74043
H         20.10941       12.82354        9.20261
H         18.52892       12.08870        9.33546
H         19.16027       14.76247        7.94987
H         18.41809       14.52740        9.51771
H         17.18868       13.65291        6.82896
H         16.81758       15.15079        7.66693
H         15.65203       14.00387        9.47397
H         16.34673       12.41491        9.02882
H         21.18626       14.23564        7.25373
H         20.12314       14.25274        5.81393
H         22.80539       15.62582        5.99571
H         21.70314       15.58099        4.58845
H         23.43833       14.34113        3.27551
H         24.53299       14.38224        4.66353
H         23.47288       16.87689        3.16992
H         25.10537       16.20255        3.03051
H         24.57450       16.91677        4.56319
