97

C          1.99695       -0.05683        1.77319
C          3.32389        0.51276        1.26074
C          3.35828        1.03802       -0.19980
C          2.71921        2.44310       -0.30821
N          3.15273        3.17105       -1.61614
C          1.93693        3.37296       -2.49540
C          0.89555        2.42240       -1.90789
C          1.17769        2.49225       -0.38183
C          0.59279        3.72548        0.33086
C          0.74612        3.65779        1.85380
C          0.02512        4.80871        2.55791
S         -0.04212        4.60440        4.35572
C         -1.40094        3.43978        4.54241
S         -2.30825        2.89184        3.24926
N         -1.61415        3.08356        5.83092
C         -0.77010        3.46251        6.96997
C         -0.15714        2.19788        7.58305
O         -1.15741        1.26246        7.96431
C         -1.97364        0.89455        6.85168
C         -2.64475        2.11189        6.21651
C         -0.53688        2.70263       -2.37297
C         -1.54676        1.68125       -1.83735
C         -2.95941        1.85081       -2.40372
C         -3.91235        0.75174       -1.92441
C         -5.32199        0.83358       -2.51708
C         -6.20802       -0.34081       -2.08918
C         -7.61370       -0.32603       -2.69625
C         -8.45042       -1.54329       -2.28940
C         -9.85583       -1.56839       -2.89699
C        -10.67019       -2.79811       -2.48086
C        -12.07962       -2.82914       -3.07667
C        -12.88376       -4.05496       -2.62167
N        -14.23548       -4.08970       -3.16029
C        -14.60573       -4.67442       -4.35230
C        -15.94151       -4.39171       -4.57657
C        -16.39467       -3.59997       -3.48463
C        -15.32078       -3.42591       -2.62999
C          4.82611        1.00281       -0.66829
O          4.99334        1.33038       -2.07346
H          2.15921       -0.56425        2.73287
H          1.58313       -0.80069        1.07699
H          1.23362        0.71056        1.94626
H          4.07979       -0.28535        1.32919
H          3.67714        1.31036        1.93536
H          2.79056        0.33670       -0.83849
H          3.10807        3.06203        0.51301
H          3.87617        2.56278       -2.08661
H          3.60036        4.06359       -1.39199
H          2.21054        3.16072       -3.53536
H          1.62560        4.42254       -2.41903
H          1.15300        1.39964       -2.23960
H          0.76481        1.59608        0.09698
H         -0.48182        3.78691        0.10517
H          1.03684        4.66080       -0.05711
H          1.80492        3.64850        2.16096
H          0.29681        2.71714        2.20500
H         -1.01214        4.89643        2.20304
H          0.53710        5.77253        2.41522
H         -1.39828        3.97836        7.71406
H          0.02133        4.15209        6.65556
H          0.40081        2.44813        8.49538
H          0.54079        1.74115        6.85262
H         -2.73032        0.20090        7.24055
H         -1.36578        0.36807        6.08952
H         -3.31999        2.59533        6.94110
H         -3.21231        1.83621        5.32022
H         -0.55341        2.68183       -3.47552
H         -0.83710        3.72453       -2.08779
H         -1.59230        1.73582       -0.73609
H         -1.18513        0.66497       -2.07537
H         -2.91464        1.84180       -3.50685
H         -3.35667        2.84117       -2.12208
H         -3.97580        0.77823       -0.82240
H         -3.47638       -0.23137       -2.17701
H         -5.25433        0.85688       -3.61899
H         -5.79559        1.78582       -2.22176
H         -6.28665       -0.35536       -0.98786
H         -5.70695       -1.28543       -2.36642
H         -7.53652       -0.28656       -3.79712
H         -8.13667        0.59886       -2.39652
H         -8.52949       -1.57765       -1.18838
H         -7.91331       -2.46357       -2.58008
H         -9.78055       -1.53517       -3.99782
H        -10.39995       -0.65375       -2.60388
H        -10.73713       -2.83140       -1.37882
H        -10.12459       -3.71186       -2.77674
H        -12.02806       -2.82600       -4.17751
H        -12.63024       -1.91843       -2.79052
H        -12.95301       -4.07728       -1.52272
H        -12.37416       -4.98181       -2.92621
H        -13.89014       -5.24797       -4.93290
H        -16.52875       -4.73258       -5.42322
H        -17.39714       -3.21401       -3.33029
H        -15.23794       -2.89333       -1.68780
H          5.25483        0.01130       -0.46956
H          5.43550        1.73765       -0.11900
H          4.89210        0.52488       -2.60527
