70

F          2.38658       -0.91538        0.31830
C          2.04332        0.29882        0.92594
C          2.83206        0.45154        2.22020
N          4.29311        0.57814        1.97058
C          4.97633       -0.55940        1.74713
C          6.34670       -0.56833        1.46508
C          7.06758       -1.77551        1.25161
C          8.41588       -1.72087        0.98809
C          9.11599       -0.47823        0.91480
C          8.41784        0.70364        1.12301
C          7.03413        0.68954        1.40127
C          6.26931        1.86240        1.62763
C          4.92515        1.81965        1.91678
C          4.14701        3.07199        2.22675
O          3.08162        3.22199        1.30801
C          2.27607        4.39282        1.57181
C          1.02728        4.33186        0.70952
C          0.09508        5.52836        0.94034
C         -1.28049        5.34111        0.29036
C         -2.23711        6.51211        0.53611
C         -3.67363        6.22833        0.08613
C         -4.64072        7.38290        0.36529
C         -6.09563        7.06349        0.01028
C         -7.06633        8.20907        0.31328
C         -8.52269        7.86779       -0.00869
C         10.60252       -0.46089        0.65496
C         11.07528       -1.12483       -0.66037
C         10.57485       -0.51493       -1.96858
C         10.92284        0.98548       -2.23913
Br        12.83519        1.36405       -2.08586
F         10.48609        1.36511       -3.45165
F         10.26097        1.75637       -1.32229
Br        11.26807       -1.59011       -3.45966
F          9.19089       -0.57655       -2.01175
H          0.96823        0.27530        1.16031
H          2.25745        1.11335        0.22288
H          2.68717       -0.43141        2.85588
H          2.48323        1.33575        2.76017
H          4.39770       -1.48097        1.79644
H          6.54590       -2.73229        1.30171
H          8.96610       -2.65030        0.83302
H          8.93767        1.66116        1.06555
H          6.75486        2.83759        1.58222
H          4.84890        3.92444        2.18108
H          3.76593        3.03216        3.27119
H          2.87256        5.29949        1.36073
H          2.00404        4.41132        2.64491
H          0.48592        3.39918        0.94122
H          1.31825        4.27553       -0.35100
H          0.56890        6.44804        0.55818
H         -0.04416        5.68273        2.02484
H         -1.73558        4.41570        0.68605
H         -1.16053        5.18085       -0.79485
H         -1.85735        7.41323        0.02443
H         -2.24213        6.75451        1.61373
H         -4.03704        5.32097        0.60049
H         -3.68513        5.99041       -0.99189
H         -4.31348        8.27852       -0.19108
H         -4.58156        7.65256        1.43467
H         -6.41440        6.16293        0.56510
H         -6.16541        6.79913       -1.05983
H         -6.76070        9.10302       -0.25588
H         -6.97851        8.48455        1.37804
H         -8.64728        7.61131       -1.07136
H         -9.19231        8.71044        0.21131
H         -8.86831        7.00580        0.58169
H         11.09265       -1.02673        1.46506
H         10.98013        0.56656        0.72427
H         10.76619       -2.17912       -0.68890
H         12.17202       -1.12023       -0.68037
