86

C          1.62054        0.57552        1.31042
C          2.95987        0.85283        1.99683
C          3.58739       -0.39293        2.63195
C          4.94297       -0.12875        3.29509
C          5.56489       -1.37637        3.92983
C          6.95640       -1.12405        4.52411
C          7.58809       -2.33131        5.21901
S          7.76827       -3.69390        3.99668
C          8.68194       -4.82070        4.93724
N          9.20439       -4.73671        6.13371
N          9.80122       -5.97812        6.38092
C          9.61107       -6.70636        5.32639
O          8.90124       -6.04658        4.34718
C          9.97979       -8.14313        5.12051
N          8.78662       -8.92230        4.78147
C          8.37422       -8.98594        3.50097
N          7.16914       -9.53444        3.24413
C          6.50634       -9.56879        1.93023
C          6.48657       -8.23908        1.19187
C          7.03825       -8.19922       -0.09933
C          7.08522       -7.01189       -0.83255
C          6.57857       -5.84266       -0.26473
C          6.01863       -5.87676        1.01364
C          5.95416       -7.05946        1.76461
C          5.33031       -7.02309        3.13833
N          9.14289       -8.51238        2.51177
C         10.51272       -8.00850        2.69290
C         11.07382       -8.42133        4.05931
C         11.49102       -9.91203        4.05645
C         11.90570      -10.48852        5.42481
C         11.39700      -11.92319        5.63518
S         11.32439      -12.38388        7.38424
C          9.67910      -11.87039        7.86493
S          8.46007      -11.44915        6.76671
N          9.46684      -11.92948        9.19177
C         10.50229      -12.34999       10.15769
C         11.30767      -11.17623       10.71738
C          8.16169      -11.57640        9.78384
C          7.23553      -12.78297        9.93953
H          1.20010        1.48760        0.86572
H          0.87945        0.18198        2.02203
H          1.72981       -0.16571        0.50437
H          2.82423        1.62504        2.77257
H          3.66676        1.28152        1.26645
H          3.70736       -1.17278        1.85815
H          2.88912       -0.81352        3.37705
H          4.83025        0.65443        4.06460
H          5.64038        0.28371        2.54506
H          5.62587       -2.17117        3.16448
H          4.89564       -1.76736        4.71591
H          6.89527       -0.32294        5.27888
H          7.63729       -0.75258        3.74079
H          6.96520       -2.70581        6.04239
H          8.58746       -2.10425        5.60898
H         10.30895       -8.48744        6.10761
H          8.54795       -9.69095        5.43888
H          6.58650       -9.68004        4.06119
H          5.48600       -9.92683        2.12778
H          6.98861      -10.33011        1.29815
H          7.42599       -9.12149       -0.54010
H          7.50961       -7.00488       -1.83655
H          6.60854       -4.90440       -0.81926
H          5.61227       -4.96089        1.44717
H          4.71683       -6.12210        3.25536
H          6.09190       -6.99648        3.93258
H          4.68063       -7.89097        3.32618
H          8.67951       -8.30884        1.62528
H         10.50207       -6.91435        2.58228
H         11.13176       -8.42236        1.88385
H         11.94323       -7.78452        4.27941
H         12.30703      -10.02991        3.32856
H         10.65418      -10.50960        3.66102
H         11.50188       -9.87707        6.24214
H         12.99712      -10.45036        5.54747
H         12.04535      -12.67623        5.16633
H         10.37370      -12.04687        5.24620
H         11.15803      -13.09027        9.67991
H          9.97927      -12.88169       10.96505
H         11.85109      -10.65295        9.92057
H         12.04158      -11.54669       11.44526
H         10.66053      -10.45272       11.23071
H          7.70230      -10.81619        9.14103
H          8.37631      -11.11864       10.76038
H          6.98006      -13.20673        8.96048
H          6.30576      -12.46973       10.43286
H          7.69113      -13.57119       10.55423
