62

C          7.48580        2.65729        3.73594
C          6.05204        2.20377        3.57739
O          5.90128        1.60487        2.23847
P          4.54032        1.77071        1.42810
O          3.94777        3.12970        1.33852
C          5.02899        1.10426       -0.20099
C          3.89919        1.25151       -1.24110
P          3.62528        2.96974       -1.85226
C          4.48769        3.37190       -3.45052
C          3.67496        2.88981       -4.70216
C          4.40141        3.19456       -6.02623
C          3.28047        1.40503       -4.67369
C          4.58470        4.93226       -3.47019
O          5.22954        5.43169       -2.30842
C          5.90917        2.78047       -3.34609
C          1.84302        3.36672       -1.88479
C          1.18070        3.58108       -0.50455
C          1.56442        4.83664        0.29948
C          0.93672        6.18056       -0.10220
S          1.77905        6.99447       -1.48469
O          3.19141        7.12856       -1.16743
O          1.39253        6.39896       -2.74995
Cl         0.94792        8.87594       -1.41079
O          3.45694        0.76299        2.04615
C          3.78750       -0.58775        2.50108
C          2.98187       -1.60596        1.71889
H          7.62410        3.08671        4.73780
H          7.73900        3.42716        2.99597
H          8.18279        1.81663        3.62576
H          5.34552        3.04130        3.66794
H          5.78199        1.42745        4.30816
H          5.28895        0.04090       -0.09513
H          5.94819        1.62025       -0.51084
H          2.93811        0.91437       -0.82293
H          4.09816        0.61941       -2.11504
H          4.23558        3.80754       -0.89937
H          2.74195        3.48049       -4.70701
H          5.31660        2.59664       -6.13762
H          4.66721        4.25184       -6.14026
H          3.74135        2.93589       -6.86442
H          4.15864        0.74398       -4.63554
H          2.73155        1.15211       -5.58983
H          2.61814        1.14587       -3.83485
H          3.58443        5.37457       -3.60297
H          5.18044        5.19696       -4.35956
H          4.70035        6.17083       -1.95293
H          5.92016        1.68311       -3.32877
H          6.42971        3.15702       -2.45556
H          6.49884        3.10264       -4.21439
H          1.35229        2.53322       -2.40983
H          1.72573        4.24935       -2.52940
H          1.38919        2.71518        0.14025
H          0.09279        3.57450       -0.67583
H          2.65357        4.93735        0.39753
H          1.22187        4.66715        1.33122
H          1.02796        6.90534        0.71768
H         -0.11783        6.11152       -0.40518
H          3.53463       -0.61199        3.57010
H          4.87091       -0.75690        2.40624
H          1.90570       -1.41306        1.81732
H          3.18470       -2.61536        2.10311
H          3.24424       -1.59437        0.65134
