69

C          4.66021       -3.10974       -3.07223
C          3.76188       -3.90383       -3.21209
N          2.78885       -4.82779       -3.38515
C          1.53183       -4.76907       -2.84915
N          0.94578       -3.60672       -2.57441
C          1.21549       -2.28649       -3.16429
C         -0.11091       -1.55856       -3.45354
O          0.18260       -0.20300       -3.72465
C          0.04292        0.22231       -5.08934
C         -1.36811        0.65263       -5.44264
O         -2.18218       -0.51610       -5.53081
C         -3.50484       -0.35334       -5.89449
C         -4.12926        0.88509       -6.07824
C         -5.46902        0.92499       -6.46919
C         -6.22269       -0.23524       -6.69846
C         -5.57432       -1.46122       -6.47857
C         -4.23927       -1.52727       -6.08564
C         -7.68989       -0.13654       -7.14771
C         -7.85055        0.80045       -8.38880
C         -7.31500        0.45866       -9.81467
C         -8.20654       -0.57089      -10.54059
C         -7.38187        1.77782      -10.61587
C         -5.85707       -0.03906       -9.82659
C         -8.31555       -1.52260       -7.38701
C         -8.48625        0.52718       -5.99298
N          0.87543       -5.93003       -2.63264
C          1.48547       -7.14124       -2.05562
C          1.62467       -7.06871       -0.52295
C          0.36060       -7.24743        0.29516
Br        -0.93389       -5.74282        0.08215
Br         2.79386       -8.57086        0.00504
H          5.45706       -2.40687       -2.93945
H          3.03189       -5.68273       -3.88389
H          0.16774       -3.65824       -1.91499
H          1.79452       -2.42018       -4.08547
H          1.81306       -1.67946       -2.46920
H         -0.75653       -1.59460       -2.55617
H         -0.66141       -2.03931       -4.27666
H          0.38383       -0.56749       -5.78201
H          0.71384        1.08627       -5.19494
H         -1.35113        1.18773       -6.41017
H         -1.74907        1.34061       -4.66753
H         -3.59347        1.82088       -5.92701
H         -5.92343        1.90638       -6.61090
H         -6.10970       -2.39713       -6.63257
H         -3.74801       -2.49032       -5.93952
H         -7.41564        1.77282       -8.10726
H         -8.93172        0.99444       -8.49578
H         -9.26485       -0.27174      -10.51216
H         -8.13072       -1.57629      -10.10916
H         -7.91175       -0.64783      -11.59753
H         -8.40497        2.18217      -10.63829
H         -7.06283        1.61980      -11.65644
H         -6.72732        2.54433      -10.17487
H         -5.74154       -1.00425       -9.31590
H         -5.17750        0.67452       -9.33992
H         -5.51811       -0.17044      -10.86512
H         -7.75614       -2.12733       -8.11157
H         -9.33865       -1.40906       -7.76999
H         -8.37949       -2.09403       -6.44946
H         -8.14404        1.55307       -5.79908
H         -8.36951       -0.04756       -5.06339
H         -9.55733        0.57113       -6.23850
H         -0.11102       -5.81221       -2.39586
H          2.47549       -7.30195       -2.49639
H          0.86274       -7.99742       -2.34770
H          2.17086       -6.16447       -0.22408
H          0.57530       -7.25597        1.36653
H         -0.19846       -8.14608        0.01357
