90

N          1.42547        1.46695        0.45341
C          2.40909        0.51272       -0.06278
C          3.12842       -0.18585        1.10098
C          4.20570       -1.17422        0.62931
C          4.90793       -2.06717        1.68059
N          4.13324       -3.26675        2.02997
C          3.12561       -3.10282        3.06117
C          3.60339       -2.38468        4.34724
N          4.28148       -1.06077        3.92469
C          5.39677       -1.29687        2.92583
C          4.75190       -0.21032        5.09025
C          3.63977        0.21876        6.03769
C          4.18981        1.18639        7.09716
C          3.13712        1.62320        8.12170
C          3.72056        2.52790        9.21167
C          2.69662        2.99601       10.25118
C          3.33058        3.82082       11.37619
C          2.33061        4.34033       12.41441
C          3.00215        5.11869       13.55062
C          2.02507        5.66573       14.59633
C          2.72616        6.42990       15.72296
C          1.74731        7.00757       16.75480
N          2.41032        7.73880       17.82472
C          2.80193        9.05901       17.76384
C          3.51039        9.35498       18.91474
C          3.55698        8.16799       19.69822
C          2.87571        7.18751       18.99937
C          4.47434       -3.17964        5.24599
N          4.37864       -3.25760        6.54050
N          5.35666       -4.13548        6.97385
C          5.99369       -4.53873        5.89833
O          5.48771       -3.97166        4.74391
S          7.32639       -5.63532        5.85750
C          7.71431       -5.71693        4.06646
C          8.96555       -6.58167        3.89438
C          9.36720       -6.71686        2.41860
C         10.63319       -7.55571        2.22808
H          0.68466        1.63210       -0.22663
H          1.85345        2.37435        0.63810
H          3.16239        0.95970       -0.74043
H          1.87641       -0.25017       -0.65021
H          2.34060       -0.67427        1.69785
H          3.57591        0.60811        1.73169
H          4.98811       -0.60192        0.10461
H          3.77424       -1.86010       -0.11458
H          5.82276       -2.44048        1.19636
H          4.75438       -4.04270        2.25174
H          2.73919       -4.08920        3.34840
H          2.26755       -2.54193        2.65960
H          2.73802       -2.08659        4.95255
H          3.54898       -0.52267        3.43223
H          6.17415       -1.85579        3.46177
H          5.79653       -0.30813        2.66363
H          5.23754        0.66279        4.63105
H          5.52189       -0.79488        5.61202
H          3.21104       -0.65574        6.54879
H          2.82755        0.70813        5.47139
H          4.61458        2.07620        6.60171
H          5.02612        0.69796        7.62582
H          2.68896        0.72906        8.58768
H          2.31367        2.14572        7.60462
H          4.19148        3.40962        8.74291
H          4.53555        1.98864        9.72549
H          2.18520        2.11857       10.68430
H          1.91082        3.59028        9.75275
H          3.87523        4.67622       10.93857
H          4.09507        3.20719       11.88484
H          1.76296        3.49188       12.83561
H          1.58572        4.98539       11.91581
H          3.58139        5.95658       13.12479
H          3.74025        4.46695       14.04977
H          1.43944        4.83213       15.02249
H          1.29270        6.32719       14.10074
H          3.32359        7.25537       15.30264
H          3.43786        5.76771       16.24256
H          1.15247        6.20199       17.21218
H          1.03497        7.68982       16.26480
H          2.53544        9.67704       16.91197
H          3.93220       10.32207       19.16927
H          4.02169        8.04630       20.67155
H          2.67418        6.14866       19.24140
H          7.88749       -4.69651        3.69698
H          6.85381       -6.15193        3.53903
H          8.78609       -7.58182        4.32144
H          9.79816       -6.14087        4.46635
H          9.52224       -5.71170        1.99080
H          8.53411       -7.16760        1.85379
H         11.49059       -7.11090        2.75328
H         10.89827       -7.63483        1.16580
H         10.49883       -8.57611        2.61435
