43

O          3.58648       -3.07026        3.39862
C          3.81201       -4.48088        3.59704
C          4.85771       -4.96116        2.60297
N          6.18479       -4.39044        2.87192
C          7.00650       -4.08037        1.71081
C          6.58147       -2.73153        1.10591
C          6.67761       -1.62944        2.15464
N          6.49507       -0.27739        1.49239
C          5.12451       -0.03164        0.90082
C          3.99792       -0.10755        1.92755
C          2.64541        0.06872        1.25040
F          2.55961        1.25851        0.59866
F          2.42002       -0.91062        0.33497
F          1.64982        0.02238        2.16142
C          6.96952        0.85737        2.36935
O          8.34718        0.72767        2.41821
C          8.98821        1.67959        3.31191
C         10.47363        1.39496        3.31301
O          7.43210       -2.30155        0.03490
H          2.82485       -2.81866        3.94342
H          2.87790       -5.04392        3.43421
H          4.15574       -4.66998        4.62932
H          4.86499       -6.06656        2.60987
H          4.53431       -4.65978        1.59487
H          6.70082       -4.96908        3.53022
H          6.96918       -4.84741        0.90761
H          8.05719       -4.00074        2.02736
H          5.53725       -2.81406        0.75113
H          7.68337       -1.60260        2.59244
H          5.93087       -1.76870        2.94290
H          7.15152       -0.31327        0.68925
H          4.98828       -0.78182        0.11340
H          5.16951        0.95404        0.41963
H          4.07838        0.68070        2.68890
H          3.97030       -1.08645        2.42874
H          6.48567        0.75454        3.35869
H          6.63790        1.79869        1.89093
H          8.55230        1.56418        4.32023
H          8.77160        2.70165        2.95512
H         10.68104        0.37752        3.66834
H         10.98094        2.10115        3.98308
H         10.89879        1.51246        2.30816
H          7.40643       -2.94685       -0.68964
