67

C         12.81278       -0.00608        2.18151
C         12.22958        0.90597        1.09988
C         10.77181        1.29202        1.38012
C         10.13378        2.19923        0.32462
N         10.10732        1.59819       -1.01912
C          9.58943        0.38849       -1.31180
N         10.04664       -0.38863       -2.34029
C          9.30421       -1.54496       -2.34629
N          8.41934       -1.55604       -1.36739
N          8.59827       -0.32759       -0.74601
C          7.53648        0.14510        0.14281
C          6.31953        0.72083       -0.60040
C          6.58756        1.89979       -1.55255
S          6.95045        1.28041       -3.23867
C          7.90447        2.59494       -4.00348
S          8.81278        3.69700       -3.10684
N          7.85492        2.60937       -5.35113
C          6.98253        1.75220       -6.17983
C          7.73682        0.67656       -6.97942
C          8.27369       -0.51989       -6.17817
C          7.19086       -1.51805       -5.75545
C          8.62189        3.62030       -6.10785
C          7.84293        4.92377       -6.32395
C          8.66587        5.94969       -7.11171
C          7.90652        7.25541       -7.35977
N          9.48028       -2.53078       -3.27432
N          8.92418       -3.79859       -3.02439
N         10.70388       -2.45852       -3.97136
H         13.85774       -0.26315        1.96458
H         12.24882       -0.94748        2.25898
H         12.78901        0.47577        3.16926
H         12.30174        0.40770        0.11969
H         12.83604        1.82249        1.01634
H         10.70796        1.82570        2.34165
H         10.17076        0.37569        1.51502
H         10.73070        3.11474        0.20883
H          9.13061        2.52966        0.64897
H         10.00614        2.28170       -1.79795
H         10.86167       -0.21995       -2.92346
H          7.96891        0.88959        0.81981
H          7.23415       -0.72103        0.74478
H          5.62484        1.06681        0.17982
H          5.79638       -0.09132       -1.12724
H          7.42402        2.54278       -1.24443
H          5.69355        2.53017       -1.63259
H          6.46179        2.42260       -6.88004
H          6.21355        1.31065       -5.53357
H          8.56391        1.15377       -7.52693
H          7.04444        0.31082       -7.75493
H          8.82992       -0.16175       -5.29513
H          9.01410       -1.03878       -6.80762
H          6.46928       -1.07935       -5.05240
H          7.63337       -2.39398       -5.26346
H          6.62915       -1.88213       -6.62747
H          8.88597        3.16878       -7.07477
H          9.54964        3.81723       -5.55569
H          7.56265        5.34038       -5.34408
H          6.90351        4.71198       -6.86186
H          8.97300        5.51164       -8.07682
H          9.59803        6.16192       -6.56234
H          6.98703        7.08214       -7.93741
H          8.52127        7.97097       -7.92148
H          7.61885        7.73557       -6.41347
H          7.96394       -3.81975       -3.37525
H          8.89800       -3.97770       -2.01503
H         10.51418       -2.64667       -4.95800
H         11.32851       -3.19839       -3.63133
