49

N          1.12673        0.74170       -0.28927
C          2.56420        0.46787       -0.26407
C          2.88320       -0.55120        0.83451
C          4.36842       -0.97059        0.83790
C          4.67021       -2.05126        1.84499
C          5.23223       -1.72452        3.07070
C          5.49688       -2.70124        4.06098
I          6.34668       -2.10409        5.88206
C          5.20076       -4.03288        3.83600
C          4.62824       -4.41373        2.59781
C          4.35630       -3.42241        1.58747
C          3.77708       -3.84736        0.36066
C          3.48193       -5.16373        0.15479
N          3.75849       -6.07332        1.14466
C          4.30701       -5.77777        2.33455
C          4.54825       -6.88541        3.31114
C          4.03891       -8.28163        2.94840
C          3.98827       -9.13410        4.24196
O          3.81034       -8.59182        5.32838
N          4.11624      -10.47519        4.03387
C          4.03661      -11.54551        4.96351
C          3.84125      -11.35971        6.34073
C          3.77669      -12.48031        7.17166
C          3.90266      -13.77166        6.65582
C          4.09818      -13.94782        5.28299
C          4.16534      -12.84196        4.43951
H          0.87173        1.26795       -1.12460
H          0.84803        1.31365        0.50931
H          3.20154        1.36537       -0.12754
H          2.83786        0.03978       -1.24242
H          2.22591       -1.42383        0.69613
H          2.62648       -0.13269        1.82171
H          4.99636       -0.09596        1.06035
H          4.66342       -1.30044       -0.17149
H          5.47781       -0.68171        3.27608
H          5.40233       -4.77751        4.60302
H          3.55469       -3.13437       -0.42955
H          3.03300       -5.56217       -0.75143
H          3.52705       -7.05220        0.97328
H          4.08850       -6.62403        4.28082
H          5.63111       -6.92851        3.51741
H          4.65508       -8.76591        2.17464
H          2.99620       -8.24542        2.58256
H          4.26861      -10.77032        3.07363
H          3.74257      -10.35723        6.74702
H          3.62452      -12.33371        8.24144
H          3.84898      -14.63590        7.31763
H          4.19803      -14.94957        4.86472
H          4.31735      -12.98379        3.36626
