67

C          1.46765       -5.83444       -8.83998
C          2.97054       -5.95850       -8.57642
C          3.35213       -5.72802       -7.10960
C          4.85282       -5.87149       -6.83920
C          5.24455       -5.66658       -5.37184
C          6.74695       -5.83250       -5.12670
C          7.17467       -5.66488       -3.66476
C          8.68373       -5.84760       -3.47736
C          9.16407       -5.72460       -2.02524
C         10.69091       -5.83200       -1.87870
C         11.21366       -7.24182       -2.18492
N         12.67327       -7.25269       -2.36744
C         13.30397       -7.61431       -3.49608
N         14.55241       -7.19597       -3.75049
C         15.39300       -7.79937       -4.80839
O         14.79145       -8.96819       -5.28730
C         13.39698       -8.79138       -5.62544
N         12.68105       -8.40360       -4.39890
C         13.18611       -7.73947       -6.72647
C         13.90304       -8.06092       -8.04528
C         13.98552       -6.87287       -8.99026
Br        15.11950       -5.42828       -8.25704
C         12.87700      -10.18043       -6.03867
O         12.56597      -10.91515       -4.87208
C         12.12772      -12.26106       -5.14889
C         11.80021      -12.94238       -3.83707
H          1.22884       -6.00611       -9.89841
H          1.09641       -4.83360       -8.57427
H          0.89692       -6.56544       -8.24817
H          3.51753       -5.24007       -9.21050
H          3.31766       -6.95895       -8.88693
H          2.79671       -6.43935       -6.47312
H          3.01795       -4.72251       -6.79901
H          5.40727       -5.15201       -7.46761
H          5.18525       -6.87350       -7.16512
H          4.68889       -6.38205       -4.74088
H          4.92681       -4.66234       -5.04201
H          7.29869       -5.10698       -5.75062
H          7.06038       -6.83183       -5.47983
H          6.63369       -6.39230       -3.03530
H          6.87663       -4.66679       -3.30110
H          9.21726       -5.10194       -4.09359
H          8.96244       -6.83350       -3.89100
H          8.67104       -6.48461       -1.39530
H          8.84908       -4.75063       -1.62017
H         10.99703       -5.54151       -0.86082
H         11.17028       -5.12132       -2.57279
H         10.77163       -7.61317       -3.11688
H         10.94269       -7.94650       -1.38425
H         13.22811       -6.77348       -1.66346
H         14.93905       -6.42686       -3.21269
H         16.35641       -8.09965       -4.37425
H         15.55962       -7.04644       -5.60012
H         12.12511       -9.17744       -4.01939
H         13.52523       -6.75771       -6.36049
H         12.10210       -7.63982       -6.88493
H         13.36914       -8.86214       -8.58485
H         14.91675       -8.44085       -7.84939
H         13.01332       -6.40284       -9.17734
H         14.45360       -7.13950       -9.94216
H         13.66756      -10.67411       -6.63005
H         11.98144      -10.06431       -6.67881
H         12.93551      -12.79203       -5.68367
H         11.24611      -12.22531       -5.81524
H         12.67840      -12.97246       -3.17911
H         11.47998      -13.97546       -4.02583
H         10.98383      -12.42616       -3.31409
