35

N          1.21961        0.30527        0.08962
C          2.67560        0.24497        0.18935
C          3.12853       -1.22026        0.27035
C          4.65189       -1.36205        0.27503
C          5.07996       -2.85515        0.36355
C          6.56034       -2.98540        0.35543
N          7.27320       -3.10034       -0.74899
C          8.72273       -3.27798       -0.58954
C          9.07657       -2.68464        0.78748
S          7.51281       -2.91318        1.77272
C          9.45933       -1.20073        0.77864
C         10.86390       -0.94517        0.18174
C         11.11121        0.50796       -0.02549
C         11.98870        1.27833        0.62817
F         12.78939        0.81578        1.58380
F         12.16748        2.56577        0.40468
F         10.33297        1.09100       -0.97996
H          0.90768        1.23078       -0.20113
H          0.77574        0.11075        0.98760
H          3.10259        0.80624        1.04611
H          3.09247        0.70154       -0.72256
H          2.69123       -1.76403       -0.58156
H          2.71204       -1.68048        1.18270
H          5.08829       -0.81340        1.12430
H          5.07634       -0.92044       -0.64132
H          4.65610       -3.42061       -0.48042
H          4.68332       -3.29622        1.28941
H          6.82412       -3.17561       -1.66089
H          9.25015       -2.75873       -1.40057
H          8.95655       -4.35253       -0.65009
H          9.84531       -3.29492        1.27978
H          9.43930       -0.81581        1.80856
H          8.70492       -0.62966        0.21432
H         10.97508       -1.45001       -0.79389
H         11.64071       -1.35565        0.84179
