100

C          0.64024       -0.15506       -0.17608
C          2.16771       -0.07451       -0.24024
C          2.77949        0.77935        0.87586
C          4.30939        0.84710        0.83239
C          4.91808        1.73334        1.92364
C          6.44969        1.76754        1.90653
C          7.05545        2.68710        2.97140
C          8.58750        2.71305        2.96575
C          9.18486        3.67512        3.99726
C         10.71690        3.69907        4.01104
C         11.29732        4.70080        5.01437
C         12.82886        4.71926        5.06093
C         13.38871        5.77518        6.01946
C         14.91693        5.76872        6.13031
C         15.45288        6.87717        7.04241
C         16.97677        6.86004        7.20967
C         17.45459        8.02085        8.08464
C         18.99207        8.00453        8.31871
C         19.35870        9.09179        9.25186
N         19.82157        8.87647       10.44832
C         19.88275       10.06236       11.33530
C         19.72088       11.20784       10.30852
C         19.16844       10.55957        9.01223
C         19.82487       11.04796        7.70228
C         19.57130       12.53333        7.42686
C         20.29573       13.02772        6.17067
C         20.06125       14.51387        5.88958
C         20.85099       15.03007        4.68437
N         20.63615       16.46929        4.51116
C         18.80447        9.94580       12.45071
C         17.45793        9.44487       11.97469
C         17.12371        8.09314       12.13990
C         15.90525        7.60220       11.66203
C         15.01796        8.45249       11.00366
C         15.32219        9.81308       10.82745
C         16.54127       10.28979       11.32881
C         14.35619       10.73103       10.12513
H          0.23243       -0.76421       -0.99442
H          0.18437        0.84390       -0.24689
H          0.30370       -0.60299        0.77088
H          2.47499        0.33431       -1.21786
H          2.59270       -1.09161       -0.19301
H          2.46001        0.38152        1.85560
H          2.36605        1.80211        0.81875
H          4.63071        1.21708       -0.15744
H          4.72125       -0.17401        0.91914
H          4.57289        1.38430        2.91305
H          4.52914        2.76143        1.81591
H          6.79643        2.08958        0.90861
H          6.83848        0.74299        2.04315
H          6.70003        2.37519        3.96941
H          6.67391        3.71306        2.82410
H          8.94393        2.99233        1.95844
H          8.97120        1.69384        3.14854
H          8.81665        3.40660        5.00330
H          8.80752        4.69463        3.80213
H         11.08842        3.94018        2.99950
H         11.09726        2.68778        4.23876
H         10.90684        4.47527        6.02252
H         10.92867        5.71260        4.76914
H         13.22515        4.90117        4.04655
H         13.19857        3.72135        5.35512
H         12.95295        5.62360        7.02313
H         13.05123        6.77484        5.69285
H         15.36022        5.87705        5.12514
H         15.25375        4.78690        6.50602
H         14.98174        6.79430        8.03764
H         15.14180        7.85795        6.64126
H         17.46480        6.91172        6.22148
H         17.28806        5.90170        7.65885
H         16.94716        7.98712        9.05978
H         17.17263        8.97603        7.61462
H         19.51011        8.15684        7.35857
H         19.30741        7.02888        8.71748
H         19.96179        7.93124       10.80860
H         20.87313       10.08854       11.81043
H         20.70154       11.65919       10.10593
H         19.07014       12.00197       10.68777
H         18.07844       10.72014        8.92891
H         19.43981       10.45397        6.85808
H         20.91019       10.85521        7.75409
H         19.89745       13.13950        8.28843
H         18.48522       12.70370        7.32692
H         19.97659       12.42727        5.30122
H         21.37844       12.84434        6.28549
H         20.34059       15.11781        6.76811
H         18.98405       14.69260        5.72335
H         20.59410       14.42104        3.79240
H         21.92682       14.87482        4.86675
H         19.68875       16.65704        4.17950
H         21.26875       16.84718        3.80616
H         18.72494       10.93910       12.91738
H         19.18687        9.26894       13.22903
H         17.80526        7.42563       12.67327
H         15.64528        6.55361       11.81128
H         14.06890        8.06187       10.63144
H         16.76749       11.35481       11.22776
H         13.40321       10.79481       10.67011
H         14.12139       10.36113        9.11618
H         14.75641       11.74840       10.03148
