34

O          1.35720       -0.20770        1.79192
C          2.73407       -0.59772        1.67007
C          2.95469       -0.95535        0.20083
C          2.32515       -2.30552       -0.24245
P          0.50799       -2.42778       -0.26694
C         -0.34510       -1.20255       -1.46646
C          0.40577       -0.98718       -2.81058
F          0.85641       -2.22740       -3.22433
F         -0.45615       -0.50855       -3.72707
F         -1.58257       -1.72548       -1.69172
F         -0.49839       -0.01081       -0.83321
C         -0.07625       -4.09553       -0.72572
C          0.50132       -5.28469        0.07144
C          0.33934       -5.25674        1.59208
C         -1.11870       -5.16602        2.15583
Br        -2.28593       -6.56044        1.45806
F         -1.10944       -5.19945        3.49511
F         -1.63748       -3.94751        1.79041
Br         1.23979       -6.80258        2.35457
F          0.98425       -4.10445        2.07448
O          2.52128        0.09533       -0.65161
H          1.22981        0.29113        2.61375
H          2.97067       -1.45597        2.32152
H          3.40345        0.23703        1.93101
H          4.03923       -1.08505        0.04852
H          2.66548       -3.12327        0.41178
H          2.64839       -2.54146       -1.26787
H         -0.03279       -2.03379        0.97234
H          1.26562       -0.31228       -2.68694
H          0.18515       -4.22255       -1.78653
H         -1.17281       -4.05052       -0.66670
H          1.57728       -5.39077       -0.12215
H          0.02611       -6.19716       -0.31150
H          1.87967        0.62642       -0.14179
