75

C          1.35159        0.40022        0.43374
C          2.87044        0.21409        0.48285
C          3.29943       -1.25146        0.62064
C          4.81839       -1.44419        0.67103
C          5.25187       -2.90723        0.81228
C          6.77254       -3.09040        0.84735
C          7.21819       -4.55064        0.97939
C          8.74082       -4.71819        0.98644
C          9.20256       -6.17557        1.09858
C         10.72959       -6.31427        1.05879
C         11.19336       -7.75487        1.16632
O         12.63890       -7.76796        1.13271
C         13.18187       -9.04939        1.34961
C         14.63611       -8.90574        1.66402
N         15.63312       -9.59587        1.08768
C         16.84369       -9.26774        1.66338
C         16.58929       -8.33210        2.63250
N         15.20660       -8.11795        2.60317
C         14.44724       -7.18757        3.45521
O         13.58041       -7.96251        4.23276
C         12.48959       -7.19634        4.79216
C         11.49082       -8.16019        5.40635
C         10.26498       -7.43910        5.98363
C          9.27055       -8.39720        6.64359
C         17.52178       -7.70403        3.61043
C         17.43180       -8.30158        5.04471
C         17.76100       -9.79903        5.05842
C         18.35366       -7.51280        5.98199
H          1.07803        1.45946        0.33115
H          0.87265        0.02095        1.34883
H          0.91020       -0.14024       -0.41715
H          3.28628        0.79395        1.32453
H          3.32375        0.63956       -0.42869
H          2.88494       -1.83255       -0.22237
H          2.84560       -1.67929        1.53231
H          5.23257       -0.85904        1.51116
H          5.26960       -1.01833       -0.24269
H          4.83287       -3.49489       -0.02341
H          4.81026       -3.33268        1.73069
H          7.19153       -2.50394        1.68410
H          7.21093       -2.65981       -0.07019
H          6.79064       -5.13948        0.14908
H          6.79570       -4.98173        1.90415
H          9.16974       -4.13483        1.82028
H          9.15842       -4.27745        0.06445
H          8.75750       -6.76403        0.27805
H          8.81328       -6.61400        2.03433
H         11.17750       -5.73265        1.88207
H         11.12082       -5.88419        0.12318
H         10.80252       -8.36420        0.33061
H         10.85272       -8.21808        2.11191
H         13.07253       -9.70903        0.46494
H         12.69061       -9.55305        2.20587
H         15.49744      -10.26348        0.33357
H         17.77730       -9.71840        1.35112
H         13.89584       -6.49695        2.79661
H         15.18055       -6.62610        4.05693
H         12.02440       -6.59674        3.98811
H         12.88313       -6.49601        5.55133
H         11.99237       -8.74442        6.19444
H         11.17048       -8.88201        4.63581
H          9.75970       -6.87834        5.17896
H         10.59424       -6.68612        6.71836
H          8.90555       -9.15105        5.93091
H          8.39730       -7.85736        7.03151
H          9.73104       -8.93332        7.48576
H         17.35896       -6.61570        3.64756
H         18.54406       -7.84262        3.22625
H         16.39311       -8.17973        5.39950
H         18.78599       -9.98359        4.70080
H         17.07257      -10.38491        4.43312
H         17.69214      -10.19740        6.07911
H         19.40633       -7.60725        5.67540
H         18.27393       -7.88865        7.01046
H         18.10276       -6.44257        5.99615
