76

C          1.06137        1.32779        0.62207
C          2.55695        1.06106        0.43746
C          3.21153        1.97245       -0.60535
C          4.71859        1.74840       -0.75145
C          5.39549        2.75475       -1.68470
C          6.89257        2.49082       -1.87470
C          7.55970        3.51452       -2.79930
C          9.02281        3.20149       -3.06592
O          9.60944        4.32733       -3.75094
C         10.91251        4.11399       -4.25647
C         11.40654        5.51599       -4.66191
C         10.30065        6.21412       -5.36629
N         10.03835        7.36302       -4.85147
C         10.90349        7.77924       -3.69103
C         11.73587        6.47541       -3.48411
C          9.99370        8.17920       -2.51036
C          8.95322        7.14508       -2.07033
C          8.12960        7.63539       -0.87793
N          7.13630        6.64068       -0.49112
C          6.27566        7.11580        0.60674
C          5.26537        6.09425        1.06877
C          3.89170        6.34931        0.98080
C          2.94295        5.46334        1.49623
C          3.36871        4.28677        2.11437
C          4.73058        3.99484        2.19759
C          5.66798        4.88973        1.67606
O          7.02500        4.63636        1.74054
C         11.72797        8.98365       -4.22820
C         12.46888        9.92457       -3.24561
C         13.62807        9.27598       -2.46265
F         14.51440        8.67122       -3.31059
F         14.30299       10.17999       -1.74124
F         13.17572        8.31677       -1.60375
O         12.93442       11.05860       -3.94843
H          0.62373        0.66786        1.38344
H          0.50760        1.16614       -0.31441
H          0.87714        2.36674        0.93448
H          2.71318        0.00661        0.15408
H          3.07715        1.19001        1.40244
H          3.02803        3.02503       -0.33358
H          2.72126        1.82162       -1.58322
H          4.90634        0.72215       -1.11338
H          5.19095        1.80896        0.24466
H          5.25120        3.77470       -1.28876
H          4.89680        2.73497       -2.66964
H          7.03686        1.47188       -2.27443
H          7.39397        2.50837       -0.89101
H          7.47671        4.51661       -2.35120
H          7.02399        3.55654       -3.76179
H          9.13036        2.29285       -3.68598
H          9.57805        3.03606       -2.12284
H         10.90219        3.43832       -5.13324
H         11.59402        3.68013       -3.50121
H         12.25558        5.40023       -5.35810
H          9.73728        5.83755       -6.22251
H          9.29613        7.97374       -5.20108
H         11.46540        6.00244       -2.53379
H         12.80552        6.69439       -3.45262
H          9.48870        9.12758       -2.76699
H         10.65697        8.41131       -1.66382
H          9.44905        6.19921       -1.80230
H          8.26268        6.89635       -2.89096
H          7.59126        8.55837       -1.15589
H          8.81400        7.91927       -0.04566
H          7.61109        5.79432       -0.16713
H          5.73551        8.00527        0.24810
H          6.87904        7.44215        1.48222
H          3.56506        7.27907        0.51046
H          1.88046        5.69266        1.42140
H          2.64332        3.58675        2.52911
H          5.06826        3.07081        2.67422
H          7.16361        3.82473        2.25526
H         11.04394        9.66427       -4.75903
H         12.44811        8.61654       -4.97732
H         11.77375       10.31584       -2.48817
H         13.65943       10.80168       -4.54451
