52

C          1.67839        3.97214       -0.96003
C          2.44540        2.66284       -0.95457
O          3.06948        2.41255        0.35262
C          4.27700        2.96174        0.55548
O          4.90723        3.61220       -0.25433
C          4.75499        2.67621        1.98900
C          6.25278        2.56666        2.06838
C          6.86825        1.32458        2.38307
C          8.23895        1.15656        2.39363
C          9.10251        2.23547        2.07754
C          8.47839        3.50284        1.78899
C          7.06714        3.64811        1.78988
C          9.30535        4.58806        1.49045
N         10.63185        4.42736        1.48930
C         11.29156        3.24780        1.73987
C         10.53049        2.11711        2.02493
C         11.19826        0.77436        2.21160
C         11.07372       -0.14066        0.96414
C         11.68721        0.47943       -0.29494
C         11.42174       -0.33148       -1.56560
S         11.90903        0.66235       -2.98990
O         10.97761        1.76748       -3.12924
O         13.33042        0.89081       -2.91777
O         11.64099       -0.37530       -4.20608
C         12.80268        3.30252        1.68204
C         13.41105        4.63296        1.22959
H          1.16493        4.08464       -1.92505
H          2.34986        4.83101       -0.83486
H          0.91869        3.99008       -0.16782
H          3.23351        2.64494       -1.71822
H          1.78276        1.79961       -1.08763
H          4.25951        1.77583        2.37003
H          4.39643        3.52076        2.60053
H          6.22903        0.47213        2.62107
H          8.64999        0.18138        2.64735
H          6.63557        4.61901        1.54657
H          8.92521        5.57933        1.24692
H         11.21896        5.23261        1.26495
H         10.75724        0.26223        3.07873
H         12.25929        0.91164        2.45602
H         10.01144       -0.36337        0.77785
H         11.55847       -1.10068        1.19609
H         12.77424        0.59779       -0.17159
H         11.26627        1.48657       -0.44542
H         10.35492       -0.55941       -1.69958
H         12.00058       -1.26387       -1.61116
H         10.88972       -0.02887       -4.72526
H         13.15234        2.50624        1.01065
H         13.19040        3.04052        2.68028
H         13.10523        4.90727        0.20836
H         14.50383        4.54637        1.21229
H         13.18225        5.46487        1.91444
