42

C          1.40532        1.13924       -2.31224
C          0.22089        0.85474       -1.42752
C         -0.92259        0.21440       -1.92688
C         -2.01526       -0.06127       -1.10010
C         -1.99645        0.30539        0.25402
C         -0.85157        0.93605        0.76176
C          0.23864        1.20015       -0.06550
C         -3.24268        0.16352        1.10715
C         -4.07363        1.41402        1.01054
C         -5.00111        2.01463        1.82233
N         -5.42203        3.16652        1.16884
C         -4.78203        3.29863       -0.00940
N         -3.97339        2.23556       -0.09973
C         -4.87233        4.38690       -1.03302
C         -4.20225        3.95201       -2.32519
C         -2.87545        4.33705       -2.56553
C         -2.19647        3.89445       -3.70242
C         -2.85184        3.06075       -4.60957
C         -4.17520        2.67973       -4.37729
C         -4.87392        3.10759       -3.23922
C         -6.30071        2.66993       -3.01748
H          2.17764        0.36440       -2.18966
H          1.87228        2.10109       -2.06220
H          1.12254        1.15522       -3.37230
H         -0.96125       -0.07495       -2.97860
H         -2.88844       -0.57205       -1.51475
H         -0.81388        1.22825        1.81359
H          1.12135        1.68781        0.35280
H         -2.99419       -0.01938        2.16180
H         -3.84492       -0.69525        0.76957
H         -5.39204        1.72661        2.79028
H         -6.10454        3.82866        1.52686
H         -3.33455        2.06653       -0.88238
H         -4.37482        5.28617       -0.63437
H         -5.93015        4.65345       -1.18175
H         -2.36982        4.99636       -1.85619
H         -1.16690        4.20562       -3.87914
H         -2.33710        2.71225       -5.50556
H         -4.68519        2.03563       -5.09623
H         -6.64442        2.02852       -3.83698
H         -6.98849        3.52818       -2.96379
H         -6.42408        2.09776       -2.08384
