52

N          8.01513        6.08680       -5.32865
C          6.73697        6.40457       -4.68351
C          5.73222        5.26002       -4.90473
C          6.29501        3.97215       -4.31934
N          5.45489        2.77571       -4.50589
C          4.42685        2.66792       -5.28604
C          3.73436        1.36721       -5.15843
C          4.74809        0.51726       -4.37562
C          5.66382        1.53582       -3.67744
I          4.81408        2.05084       -1.68462
C          7.12277        1.13592       -3.48842
C          7.89156        0.80176       -4.77852
C          9.33755        0.31928       -4.52067
C          9.35412       -0.99646       -3.71870
C         10.75190       -1.55690       -3.38191
C         10.66400       -2.69325       -2.39915
C         10.66460       -4.01125       -2.67210
C         10.79225       -4.58933       -4.05700
C         10.53350       -5.02731       -1.56817
C         10.07368        0.19806       -5.86210
H          8.77249        6.64437       -4.93629
H          7.98620        6.29745       -6.32708
H          6.27313        7.34485       -5.03005
H          6.91842        6.52514       -3.60476
H          5.56194        5.15494       -5.98947
H          4.76845        5.51666       -4.43730
H          6.43379        4.06768       -3.23111
H          7.28451        3.77254       -4.76015
H          4.11011        3.50621       -5.90620
H          3.43709        0.95104       -6.13047
H          2.79677        1.54265       -4.59610
H          5.35399       -0.07399       -5.07755
H          4.28671       -0.17560       -3.66735
H          7.10325        0.26096       -2.82326
H          7.65515        1.91872       -2.92723
H          7.92870        1.68528       -5.43785
H          7.36858        0.01560       -5.34832
H          9.84984        1.09325       -3.91874
H          8.79095       -1.76892       -4.27280
H          8.81953       -0.86001       -2.76458
H         11.36772       -0.74955       -2.95027
H         11.26180       -1.87344       -4.30262
H         10.55254       -2.39687       -1.35015
H         10.87671       -3.82868       -4.84223
H          9.92126       -5.22203       -4.29219
H         11.67448       -5.24592       -4.12500
H         10.44413       -4.55155       -0.58347
H         11.40481       -5.70142       -1.54571
H          9.65090       -5.66904       -1.72303
H          9.62791       -0.59037       -6.48850
H         11.13249       -0.05108       -5.72046
H         10.03187        1.14051       -6.42673
