41

C          5.26387        6.83126       -1.30177
C          4.47892        6.03474       -0.25736
C          5.00073        4.60493       -0.07689
C          4.24720        3.82570        1.00697
C          4.75586        2.41195        1.24044
O          6.21012        2.39357        1.53992
C          6.57954        2.73024        2.76397
O          5.86521        3.03153        3.70505
C          8.10517        2.69055        2.89764
S          8.53631        3.82854        4.25136
C          8.15129        2.77585        5.84574
O          8.49443        3.47882        6.95281
C          7.50125        4.42535        7.42465
C         10.35977        3.77938        4.26912
C         10.96933        4.71401        3.21942
C         12.49270        4.61995        3.23186
F         12.87432        3.30515        2.93274
H          4.87185        7.85176       -1.40352
H          5.21174        6.35581       -2.29201
H          6.32723        6.91093       -1.02887
H          3.41373        6.00092       -0.53971
H          4.51636        6.55816        0.71326
H          6.07458        4.64655        0.17524
H          4.93837        4.06226       -1.03577
H          3.18458        3.72417        0.72894
H          4.25687        4.38188        1.95720
H          4.69344        1.79123        0.33916
H          4.23782        1.91748        2.07208
H          8.61415        3.03505        1.98854
H          8.45496        1.67480        3.13652
H          8.79114        1.88845        5.74722
H          7.07949        2.56108        5.71708
H          7.86979        4.78521        8.38923
H          6.53033        3.92560        7.55141
H          7.40387        5.26780        6.72390
H         10.68557        2.73834        4.13548
H         10.61358        4.09801        5.29259
H         10.67949        5.75808        3.41324
H         10.61641        4.45628        2.20920
H         12.91536        4.87394        4.21689
H         12.92702        5.28254        2.46959
