64

C          2.25430       -0.62963        2.08348
C          3.50402       -1.50885        2.00258
C          4.09192       -1.58853        0.59037
C          5.34561       -2.46310        0.49327
C          5.93482       -2.51721       -0.91867
C          7.20340       -3.37025       -1.02697
C          7.77185       -3.38861       -2.45075
C          9.05473       -4.19326       -2.55428
O          9.46592       -4.20888       -3.96518
C         10.76232       -4.07506       -4.26320
O         11.66671       -3.95629       -3.44614
C         10.95123       -4.10108       -5.77535
C         12.35791       -3.78045       -6.30696
C         13.42137       -4.75760       -5.75135
N         14.64836       -3.91225       -5.44185
C         14.05344       -2.58208       -5.02829
C         12.93968       -2.34296       -6.04365
C         11.93970       -1.26700       -5.59691
C         12.52357        0.13370       -5.32036
C         13.11719        0.84478       -6.53830
O         14.37096        0.22661       -6.88214
O         11.48584        1.00791       -4.87658
N         15.54178       -3.87495       -6.62194
C         16.43115       -2.70406       -6.60952
C         16.32462       -5.11966       -6.61013
H          1.85782       -0.58531        3.10685
H          1.45477       -1.01358        1.43268
H          2.47226        0.40102        1.76590
H          3.26448       -2.52655        2.35389
H          4.27317       -1.12294        2.69287
H          4.33104       -0.56908        0.23901
H          3.32322       -1.97405       -0.10249
H          5.10587       -3.48650        0.83053
H          6.11027       -2.08341        1.19359
H          6.15989       -1.49084       -1.25780
H          5.17464       -2.90721       -1.61757
H          6.98284       -4.40150       -0.70262
H          7.96423       -2.98398       -0.32678
H          7.96874       -2.35640       -2.78444
H          7.02563       -3.80771       -3.14429
H          8.90576       -5.24344       -2.26256
H          9.87236       -3.77229       -1.95512
H         10.21088       -3.42385       -6.22368
H         10.65117       -5.10459       -6.11983
H         12.30201       -3.91221       -7.39566
H         13.70998       -5.54272       -6.45453
H         13.11037       -5.19714       -4.79632
H         15.16626       -4.31392       -4.63845
H         14.83149       -1.81663       -4.98515
H         13.64045       -2.76440       -4.02607
H         13.40650       -2.00456       -6.97841
H         11.43909       -1.59430       -4.67141
H         11.15781       -1.15157       -6.36376
H         13.32202        0.06607       -4.55428
H         13.26159        1.90171       -6.26610
H         12.40638        0.79699       -7.38258
H         14.80812        0.79649       -7.53293
H         11.09242        0.64764       -4.06649
H         15.86351       -1.77654       -6.74282
H         17.08793       -2.82013       -7.47984
H         17.06733       -2.64257       -5.70555
H         15.67243       -6.00003       -6.64402
H         16.99077       -5.19248       -5.72623
H         16.94366       -5.13080       -7.51377
