72

C         -0.28456        0.84559       -5.65367
C          1.14610        0.78704       -6.19272
C          2.20533        1.05554       -5.11936
C          3.64160        1.00868       -5.64847
C          4.69646        1.29392       -4.57512
C          6.13276        1.25819       -5.10636
C          7.17566        1.57648       -4.03150
C          8.63497        1.50381       -4.53114
C          8.95496        2.48649       -5.60245
N          8.87336        3.86803       -5.43251
C          9.24731        4.43865       -6.59156
N          9.34316        5.74680       -6.85399
C          8.68526        6.80823       -6.07955
C          9.21246        6.93489       -4.63669
O          9.14432        5.93296       -3.88809
N          9.68675        8.12393       -4.21901
C         10.17026        8.26609       -2.82665
C          9.25543        9.11972       -1.94199
C          7.85892        8.53349       -1.71283
C          7.00205        9.40357       -0.79175
C          9.77229        9.31590       -5.07403
N          9.52829        3.40553       -7.44580
N          9.34269        2.18128       -6.81496
C          9.95293        3.57070       -8.80020
O         10.13000        4.69733       -9.23717
O         10.08489        2.40893       -9.39327
C         10.56189        2.41152      -10.79777
C         12.00661        1.95244      -10.86005
C         12.24257        0.52142      -10.36417
C         13.70343        0.08890      -10.49772
H         -1.02107        0.64795       -6.44399
H         -0.50973        1.83475       -5.22803
H         -0.44107        0.10080       -4.85949
H          1.26368        1.51968       -7.00912
H          1.33095       -0.20209       -6.64438
H          2.09225        0.31938       -4.30440
H          2.01661        2.04313       -4.66228
H          3.75082        1.73870       -6.47017
H          3.83456        0.01819       -6.09582
H          4.59348        0.56091       -3.75664
H          4.49845        2.28174       -4.12295
H          6.22640        1.97198       -5.94433
H          6.34324        0.26345       -5.53494
H          7.08086        0.86416       -3.19788
H          6.98028        2.57250       -3.59959
H          8.85665        0.50765       -4.93770
H          9.32475        1.67289       -3.68802
H          8.81078        4.50194       -4.58174
H          9.65541        5.93652       -7.81178
H          7.60369        6.60381       -6.00030
H          8.80678        7.72482       -6.66215
H         11.17501        8.71210       -2.88204
H         10.26653        7.25418       -2.41779
H          9.17026       10.14019       -2.35317
H          9.77156        9.23446       -0.97484
H          7.95643        7.52140       -1.28872
H          7.34461        8.40957       -2.68067
H          7.47043        9.51774        0.19638
H          6.00760        8.96403       -0.63957
H          6.85985       10.41117       -1.20937
H          8.78987        9.61989       -5.45907
H         10.46982        9.16655       -5.91006
H         10.15273       10.14179       -4.46471
H         10.42169        3.42045      -11.20218
H          9.88386        1.70690      -11.29572
H         12.64109        2.66508      -10.30738
H         12.30967        2.03669      -11.91787
H         11.59727       -0.16667      -10.93512
H         11.92415        0.43950       -9.31330
H         14.03669        0.12374      -11.54505
H         13.84753       -0.93771      -10.13734
H         14.36905        0.74226       -9.91528
