63

C          5.63353       -3.18791        6.83065
C          5.18082       -2.16613        7.29502
C          4.66676       -0.90026        7.80305
C          4.89816        0.25807        6.80329
C          6.38755        0.45436        6.52902
N          6.65348        1.16409        5.21730
C          6.33914        2.64405        5.27015
C          6.06279        3.21252        3.88028
C          5.66165        4.68257        3.91429
Br         7.10241        5.82110        4.61260
C          8.06476        0.86569        4.71815
C          8.08437       -0.44606        3.93689
C          9.49628       -1.01659        3.74653
S         10.23331       -1.65771        5.27193
C         11.38065       -0.33718        5.75663
S         11.49841        1.10762        4.92668
N         12.10885       -0.65933        6.84493
C         12.07066       -1.99750        7.47291
C         12.95515       -3.05314        6.79012
C         14.45301       -2.72991        6.74461
C         15.27128       -3.85654        6.10821
C         13.02664        0.33591        7.44418
C         12.32671        1.38326        8.32072
C         11.47966        0.81828        9.46601
C         10.85360        1.91458       10.33203
H          6.00823       -4.11785        6.45506
H          5.13795       -0.66698        8.77235
H          3.58761       -0.98754        8.00128
H          4.43419        1.17264        7.19790
H          4.37864        0.00344        5.86407
H          6.88519       -0.52220        6.45284
H          6.89318        1.03699        7.31112
H          6.00332        0.74838        4.53317
H          7.19364        3.13807        5.75143
H          5.46038        2.76493        5.91705
H          5.22740        2.65717        3.41505
H          6.93768        3.09262        3.22420
H          4.79377        4.86811        4.55729
H          5.45176        5.05371        2.90718
H          8.71345        0.83480        5.60283
H          8.39046        1.71086        4.10275
H          7.63447       -0.28564        2.94191
H          7.46599       -1.20225        4.44933
H         10.19633       -0.26023        3.35331
H          9.46148       -1.87021        3.05743
H         11.02525       -2.34129        7.50672
H         12.38246       -1.86007        8.51640
H         12.58645       -3.23257        5.76807
H         12.79681       -3.99635        7.34005
H         14.82320       -2.53795        7.76633
H         14.61527       -1.80009        6.17556
H         15.16125       -4.79701        6.66777
H         16.34034       -3.60765        6.08350
H         14.95078       -4.04608        5.07338
H         13.56499        0.83338        6.62618
H         13.75405       -0.23252        8.03714
H         11.70631        2.02840        7.67960
H         13.11934        2.03175        8.72898
H         12.09896        0.16167       10.10075
H         10.68104        0.17833        9.05305
H         11.62459        2.54725       10.79472
H         10.24448        1.49040       11.14172
H         10.20634        2.57488        9.73446
