102

C          1.24676       -1.78506       -0.67568
C          2.63024       -1.13257       -0.73596
C          3.22452       -0.84189        0.64668
C          4.60813       -0.18581        0.60294
C          5.19445        0.09235        1.99026
C          6.57781        0.75018        1.96302
C          7.14338        1.02490        3.35954
C          8.52601        1.68411        3.35880
C          9.07077        1.93618        4.76776
C         10.44964        2.60215        4.80099
C         10.97778        2.80886        6.22344
C         12.35245        3.48061        6.29571
C         12.86036        3.63809        7.73183
C         14.23097        4.31126        7.84764
C         14.72415        4.40360        9.29457
C         16.08687        5.08349        9.45240
C         16.58223        5.08303       10.90096
C         17.94875        5.74958       11.08142
C         18.49549        5.57519       12.50083
C         19.94262        6.06599       12.62097
N         20.61487        5.62419       13.86233
C         21.34926        4.31173       13.93342
O         22.37936        4.44972       14.89823
C         21.87485        4.67458       16.18811
N         20.98721        5.84120       16.16254
C         20.45326        6.27096       15.02110
N         19.69945        7.43137       15.04549
C         19.50350        8.24271       16.14946
O         19.96216        8.04482       17.25751
C         18.56459        9.45786       15.86060
C         19.25579       10.87234       15.93694
C         20.39043       11.12032       14.88739
C         21.20586       12.42983       15.16595
O         22.19415       12.40366       15.84271
O         20.69957       13.54133       14.60750
F         21.23887       10.05238       14.92090
F         19.82679       11.16683       13.63365
F         18.28666       11.80622       15.74173
F         19.76807       11.01950       17.17858
F         18.00104        9.31704       14.61170
F         17.57479        9.43015       16.77760
C         22.02067        3.88201       12.62983
C         21.11301        3.37004       11.52556
C         21.31552        3.80456       10.20678
C         20.50316        3.34389        9.16768
C         19.46688        2.44585        9.43470
C         19.26564        1.99368       10.74152
C         20.08790        2.44522       11.77662
H          0.84687       -1.97977       -1.68054
H          0.52485       -1.14246       -0.14966
H          1.28149       -2.74591       -0.14040
H          2.57039       -0.19217       -1.31009
H          3.32132       -1.78407       -1.29767
H          3.28629       -1.78398        1.22030
H          2.53131       -0.19283        1.21111
H          4.54658        0.75986        0.03595
H          5.30143       -0.83180        0.03585
H          5.25426       -0.85443        2.55584
H          4.49808        0.73565        2.55678
H          6.52211        1.69716        1.39742
H          7.27898        0.10615        1.40331
H          7.19498        0.07625        3.92313
H          6.43713        1.66547        3.91714
H          8.47776        2.63922        2.80648
H          9.23545        1.04825        2.80013
H          9.11960        0.97684        5.31305
H          8.35314        2.56149        5.32787
H         10.40172        3.57470        4.28019
H         11.16803        1.98848        4.22911
H         11.02650        1.83137        6.73540
H         10.25077        3.41070        6.79707
H         12.30487        4.47107        5.81015
H         13.08109        2.89159        5.71110
H         12.90515        2.64302        8.20938
H         12.12311        4.21663        8.31608
H         14.18448        5.32260        7.40723
H         14.96823        3.75198        7.24454
H         14.77661        3.38641        9.72223
H         13.97647        4.94489        9.90065
H         16.02974        6.12024        9.07773
H         16.83197        4.57155        8.81791
H         16.64980        4.03917       11.25479
H         15.83724        5.57694       11.54868
H         17.88468        6.82089       10.82436
H         18.66346        5.30143       10.37256
H         18.47357        4.50535       12.75795
H         17.84220        6.08255       13.23211
H         20.03354        7.16086       12.53517
H         20.53154        5.66784       11.78955
H         20.62050        3.55202       14.27118
H         22.73002        4.89056       16.84043
H         21.32165        3.79866       16.57241
H         20.84619        6.45104       16.97999
H         19.22511        7.70344       14.18754
H         19.93044       13.34194       14.04023
H         22.71265        3.08309       12.94067
H         22.65276        4.70516       12.26525
H         22.12247        4.50821        9.98869
H         20.68026        3.69012        8.14907
H         18.82394        2.09151        8.62876
H         18.47120        1.27826       10.95657
H         19.92707        2.05544       12.78457
