58

C          0.13803       -8.17413       -4.55966
C          1.65967       -8.33348       -4.60507
C          2.41311       -7.00017       -4.54500
C          3.93622       -7.15608       -4.59105
C          4.69124       -5.82354       -4.59576
C          6.21290       -5.98674       -4.65750
C          6.96369       -4.65505       -4.75752
C          8.48559       -4.83219       -4.85798
C          9.18989       -3.49744       -5.06007
O         10.64240       -3.58445       -5.04828
C         11.17301       -4.31270       -6.12659
C         12.65361       -4.13538       -6.03884
N         13.23852       -3.44326       -5.07392
N         14.58717       -3.35714       -5.20742
C         14.83851       -4.02649       -6.32613
N         13.64730       -4.54430       -6.87060
C         13.44196       -5.21534       -8.17348
C         13.62261       -6.74153       -8.18138
C         12.76225       -7.55233       -7.20665
C         11.26577       -7.46647       -7.48655
O         10.77192       -6.73149       -8.31323
O         10.46428       -8.24202       -6.71194
N         16.07749       -4.07562       -6.92163
N         16.59898       -5.30790       -7.32400
N         17.06342       -3.19947       -6.41496
H         -0.37013       -9.14680       -4.60990
H         -0.22537       -7.56608       -5.40161
H         -0.18487       -7.67849       -3.63205
H          1.94698       -8.86815       -5.52654
H          1.98917       -8.97466       -3.76984
H          2.12725       -6.45906       -3.62576
H          2.08663       -6.36049       -5.38411
H          4.21491       -7.73116       -5.49197
H          4.26832       -7.76405       -3.73106
H          4.42005       -5.24202       -3.69735
H          4.35610       -5.22054       -5.45793
H          6.47623       -6.61399       -5.52732
H          6.56119       -6.53975       -3.76766
H          6.72313       -4.02555       -3.88390
H          6.60108       -4.10238       -5.64138
H          8.70345       -5.51538       -5.69669
H          8.87190       -5.30937       -3.94211
H          8.96632       -2.80335       -4.23925
H          8.87694       -3.02023       -6.00646
H         10.80970       -3.94639       -7.10967
H         10.91418       -5.38455       -6.07971
H         12.74224       -2.99113       -4.30729
H         14.14251       -4.74706       -8.87701
H         12.42607       -4.96310       -8.49995
H         14.67493       -6.99618       -8.00500
H         13.39431       -7.05823       -9.20969
H         12.93781       -7.24706       -6.15970
H         13.07090       -8.60894       -7.25566
H         10.98646       -8.81885       -6.12537
H         16.50442       -5.47921       -8.32057
H         16.32668       -6.09132       -6.73470
H         17.14821       -3.28767       -5.39661
H         16.79379       -2.24089       -6.64061
