104

C          1.67088       10.54033       16.46976
C          3.17681       10.35337       16.27390
C          3.54501        9.00113       15.65470
C          5.04880        8.82265       15.42662
C          5.42549        7.47685       14.79908
C          6.92793        7.32622       14.54112
C          7.32059        5.98188       13.92006
C          8.82180        5.86167       13.63904
C          9.24055        4.51152       13.04823
C         10.74130        4.42553       12.75211
C         11.19124        3.07585       12.18368
C         12.69366        3.02370       11.88716
C         13.17417        1.67730       11.33662
C         14.67613        1.65988       11.02907
C         15.17364        0.31299       10.48755
C         16.65024        0.30311       10.09106
N         17.48543        0.51882       11.29587
C         18.77175        0.25574       11.51036
N         19.33081        0.14772       12.75692
C         18.64266        0.23506       14.05784
C         18.11329       -1.11410       14.55151
C         17.44590       -0.99934       15.92714
C         17.01743       -2.35995       16.48818
C         16.36923       -2.27286       17.87336
C         16.02275       -3.64475       18.46073
C         15.38259       -3.57517       19.85045
C         15.14536       -4.95193       20.47822
C         14.49873       -4.89264       21.86521
C         14.32386       -6.26715       22.51691
C         13.68037       -6.21246       23.90582
C         13.53164       -7.58943       24.55545
C         20.65392       -0.20109       12.56550
N         20.96945       -0.31163       11.31208
N         19.79571       -0.01065       10.63362
C         19.84837        0.28996        9.20770
O         19.04383        1.03745        8.70554
O         20.87041       -0.34604        8.67884
C         21.16439       -0.07727        7.25216
C         20.78886       -1.28318        6.41944
H          1.43999       11.51670       16.91775
H          1.25546        9.76441       17.13002
H          1.13497       10.47881       15.51082
H          3.69189       10.45949       17.24370
H          3.56840       11.16188       15.63359
H          3.01434        8.88578       14.69299
H          3.17260        8.18943       16.30450
H          5.57973        8.93720       16.38826
H          5.41589        9.63945       14.78021
H          4.87858        7.35231       13.84788
H          5.08195        6.65793       15.45543
H          7.47579        7.46101       15.49056
H          7.26502        8.14396       13.87980
H          6.76038        5.83553       12.97987
H          7.00602        5.16329       14.59112
H          9.38148        6.03607       14.57505
H          9.12667        6.66948       12.95058
H          8.67312        4.32500       12.11979
H          8.95687        3.70343       13.74512
H         11.30539        4.63401       13.67849
H         11.01693        5.22706       12.04443
H         10.62875        2.86050       11.25873
H         10.92830        2.27226       12.89371
H         13.25246        3.25889       12.81073
H         12.94891        3.82159       11.16824
H         12.61634        1.43378       10.41651
H         12.93601        0.87651       12.05809
H         15.21862        1.93864       11.95355
H         14.91237        2.45173       10.29808
H         14.60543        0.05571        9.58054
H         14.97122       -0.49526       11.21113
H         16.86576        1.08877        9.35700
H         16.93273       -0.66220        9.64663
H         16.95917        0.78069       12.12645
H         17.84276        0.98693       13.97611
H         19.37350        0.65156       14.76542
H         18.95489       -1.82373       14.60585
H         17.40179       -1.52855       13.81854
H         16.56986       -0.33125       15.86182
H         18.14519       -0.52010       16.63388
H         17.90101       -3.01936       16.54261
H         16.31830       -2.84441       15.78474
H         15.45735       -1.65342       17.81517
H         17.05220       -1.74617       18.56251
H         16.94229       -4.25368       18.51622
H         15.34610       -4.17999       17.77190
H         14.42586       -3.02793       19.78742
H         16.02905       -2.98003       20.51921
H         16.10926       -5.48599       20.54972
H         14.51300       -5.55818       19.80607
H         13.51621       -4.39454       21.78999
H         15.11203       -4.25412       22.52529
H         15.30868       -6.76130       22.59283
H         13.71355       -6.91033       21.85844
H         12.69114       -5.73062       23.82854
H         14.28480       -5.56005       24.55851
H         12.90300       -8.25292       23.94301
H         13.07062       -7.51936       25.55011
H         14.50922       -8.07990       24.67541
H         21.34696       -0.35482       13.38737
H         22.24430        0.11277        7.24487
H         20.62200        0.82862        6.95702
H         21.30694       -2.18500        6.76917
H         21.08907       -1.10014        5.37846
H         19.70577       -1.46103        6.43203
