105

C          0.94425       -0.04632       -1.15935
C          2.29002       -0.16120       -0.42983
C          2.96100       -1.52949       -0.65717
C          2.13887       -2.73685       -0.18778
C          2.88119       -4.04401       -0.38721
C          2.09958       -5.30823       -0.02389
N          3.20497       -6.30022        0.21044
C          4.47415       -5.43402        0.66626
O          4.00693       -4.11775        0.51799
C          5.65488       -5.80891       -0.23271
C          5.55632       -5.47333       -1.72291
O          6.66860       -6.07900       -2.33490
C          6.82207       -5.72515       -3.71452
C          7.94626       -6.58258       -4.27919
O          8.14404       -6.13411       -5.61004
C          9.06419       -6.80790       -6.38917
C          9.27075       -6.28548       -7.67251
C         10.17114       -6.89905       -8.53320
C         10.88827       -8.05537       -8.16712
C         10.67012       -8.54636       -6.87591
C          9.77347       -7.94004       -5.98564
C         11.89731       -8.68998       -9.13784
C         11.29760       -8.91259      -10.56409
C         10.15377       -9.91993      -10.89409
C         10.60642      -11.39220      -10.79819
C          8.89750       -9.72249      -10.02494
C          9.77468       -9.64675      -12.36688
C         13.06013       -7.67613       -9.31514
C         12.51197       -9.98161       -8.56780
C          4.71379       -5.73678        2.14868
C          5.71568       -4.79074        2.84485
C          5.86696       -5.15812        4.30565
C          6.82274       -6.10317        4.70587
C          6.93752       -6.47770        6.04644
C          6.09424       -5.90999        7.00546
C          5.14152       -4.96375        6.61833
C          5.02906       -4.59108        5.27650
C          3.22978        0.98320       -0.85857
C          4.52098        1.13119       -0.02949
C          5.33735        2.31477       -0.46729
C          6.45567        2.30742       -1.21594
C          7.12085        1.06075       -1.74071
C          7.13714        3.59558       -1.59753
H          0.20500       -0.78091       -0.80879
H          1.06851       -0.18423       -2.24523
H          0.50395        0.94769       -1.00341
H          2.10367       -0.05400        0.65590
H          3.93125       -1.54916       -0.13982
H          3.17839       -1.64109       -1.73522
H          1.19392       -2.80307       -0.75076
H          1.87328       -2.63867        0.87820
H          3.23529       -4.11193       -1.43324
H          1.42727       -5.67119       -0.80900
H          1.54995       -5.18104        0.91665
H          3.43624       -6.80890       -0.65212
H          2.97691       -6.98846        0.93690
H          5.85661       -6.88799       -0.12564
H          6.53971       -5.29874        0.17220
H          5.55610       -4.37689       -1.87617
H          4.61568       -5.85993       -2.18567
H          7.07063       -4.65319       -3.81242
H          5.88519       -5.91564       -4.27025
H          7.65613       -7.64791       -4.25070
H          8.86148       -6.45643       -3.67301
H          8.71716       -5.39691       -7.97740
H         10.30730       -6.46487       -9.52442
H         11.20220       -9.43195       -6.53120
H          9.64720       -8.36639       -4.99097
H         12.14867       -9.17953      -11.21426
H         10.96455       -7.92683      -10.92788
H         10.74416      -11.72464       -9.76216
H         11.55200      -11.55888      -11.33529
H          9.84790      -12.04827      -11.25033
H          9.08957       -9.93506       -8.96481
H          8.09886      -10.39983      -10.36345
H          8.51417       -8.69425      -10.09101
H         10.63631       -9.79377      -13.03549
H          9.41680       -8.61516      -12.50293
H          8.97588      -10.32693      -12.69698
H         12.71566       -6.73950       -9.77494
H         13.84584       -8.09833       -9.95866
H         13.50705       -7.42863       -8.34219
H         11.75751      -10.72088       -8.27263
H         13.13533       -9.76721       -7.68764
H         13.16032      -10.45093       -9.31993
H          5.06575       -6.77634        2.25177
H          3.74812       -5.65765        2.67656
H          5.36031       -3.75577        2.74373
H          6.69569       -4.84877        2.34859
H          7.49442       -6.54121        3.96317
H          7.69212       -7.20667        6.34372
H          6.18652       -6.19721        8.05318
H          4.49010       -4.50704        7.36426
H          4.29079       -3.84059        4.98365
H          2.66987        1.93080       -0.80589
H          3.49944        0.85578       -1.92183
H          5.12139        0.21136       -0.08964
H          4.24745        1.25014        1.03383
H          4.94279        3.29083       -0.16359
H          6.60619        0.13675       -1.44933
H          8.16254        0.99589       -1.38684
H          7.17085        1.08500       -2.84155
H          6.62185        4.46827       -1.17785
H          7.17711        3.71399       -2.69249
H          8.18133        3.61123       -1.24542
