51

C          0.51985       -0.45555        1.00048
C          2.03489       -0.66974        0.98001
C          2.80624        0.45058        1.68631
C          4.32576        0.24482        1.67201
C          5.06123        1.37476        2.40217
C          6.59271        1.19921        2.55796
C          7.34854        1.00320        1.22341
C          7.07255        2.02593        0.12719
O          7.38515        3.32907        0.62837
C          7.46850        4.31347       -0.38588
C          7.72700        5.66120        0.27972
F          8.79380        5.61343        1.11942
F          7.97412        6.59652       -0.66231
F          6.66145        6.07509        1.01194
C          6.96194        0.04204        3.52929
S          7.19627        0.76975        5.19780
C          7.31685        2.34778        4.53837
N          7.09150        2.41561        3.25157
C          7.59519        3.55062        5.37476
C          6.49470        4.64303        5.18744
C          6.81309        5.92379        6.00109
N          7.76162        6.73717        5.23215
O          6.37327        4.98955        3.81879
H         -0.00480       -1.27513        0.49228
H          0.24060        0.48062        0.49545
H          0.13647       -0.40471        2.03006
H          2.38402       -0.75048       -0.06318
H          2.27903       -1.63412        1.45675
H          2.45988        0.53086        2.73142
H          2.56487        1.41815        1.21302
H          4.67005        0.17176        0.62758
H          4.55774       -0.72988        2.13483
H          4.63463        1.49384        3.41234
H          4.87678        2.33202        1.88914
H          7.09334        0.00845        0.82871
H          8.42755        0.99328        1.43927
H          6.02094        1.99627       -0.21282
H          7.70978        1.79000       -0.74356
H          6.53191        4.39775       -0.96524
H          8.30180        4.10676       -1.08028
H          7.90488       -0.44761        3.25337
H          6.17242       -0.71479        3.58621
H          7.01201        3.34429        2.80700
H          8.56879        3.96652        5.06602
H          7.67664        3.25656        6.43017
H          5.53248        4.22410        5.52118
H          7.15994        5.66643        7.01490
H          5.87606        6.48550        6.10781
H          8.72656        6.61615        5.53459
H          7.54687        7.72994        5.28871
H          6.96596        5.78319        3.73541
