69

C          7.09201        0.57560        1.15036
C          6.42985        1.50470        0.13054
C          7.41072        2.52556       -0.45371
C          6.80963        3.46461       -1.50480
N          5.78281        4.38217       -0.96748
C          4.49203        4.26656       -1.35433
O          4.13742        3.35391       -2.14499
C          3.52180        5.32888       -0.84495
C          1.98996        5.12917       -0.96843
C          1.37913        4.18786        0.08785
C          1.48567        2.71235       -0.29075
C          0.91633        2.46695       -1.68176
N          1.59825        3.33414       -2.71288
C          1.41661        4.82381       -2.37402
C          1.98274        5.73078       -3.47661
C          1.60555        7.20284       -3.20808
O          0.71428        7.47499       -2.39569
N          2.26977        8.15826       -3.91627
C          3.26321        7.89327       -4.96294
C          4.71145        7.99977       -4.47839
C          1.90231        9.56762       -3.68372
C          0.75423       10.03896       -4.57595
C          1.17039        3.01191       -4.11394
C          1.17018        1.51864       -4.44169
C          0.83772        1.32548       -5.93851
F          1.67247        2.01197       -6.74995
F          0.94037        0.01133       -6.25494
F         -0.42955        1.72652       -6.19982
O          2.44728        1.00717       -4.12608
C          6.25080        5.45229       -0.08218
H          6.37471       -0.14994        1.55613
H          7.50772        1.14153        1.99675
H          7.91655        0.00871        0.69449
H          5.58700        2.03280        0.60792
H          5.99435        0.91187       -0.69029
H          8.24487        1.99568       -0.94169
H          7.86951        3.11002        0.36227
H          6.33592        2.88976       -2.30845
H          7.60070        4.08895       -1.94945
H          3.80124        6.26766       -1.35511
H          3.72675        5.53039        0.21684
H          1.57855        6.12788       -0.76247
H          0.31518        4.45191        0.20331
H          1.84788        4.37136        1.06517
H          0.92332        2.08701        0.41726
H          2.52833        2.36375       -0.26016
H         -0.16119        2.69070       -1.72522
H          1.08003        1.42551       -1.97692
H          2.67006        3.19340       -2.59022
H          0.32880        4.98624       -2.31964
H          1.53934        5.48002       -4.45115
H          3.06806        5.59484       -3.58021
H          3.08543        8.62042       -5.76936
H          3.07749        6.90665       -5.40654
H          4.91473        8.98810       -4.04514
H          5.40491        7.85095       -5.31711
H          4.93583        7.24154       -3.71425
H          2.80514       10.17101       -3.85613
H          1.62458        9.66559       -2.62735
H          0.99666        9.93269       -5.64260
H          0.54469       11.10019       -4.38591
H         -0.15827        9.46789       -4.36368
H          1.87933        3.50246       -4.78924
H          0.16601        3.42685       -4.27869
H          0.36226        0.98917       -3.90378
H          2.48328        0.06576       -4.36740
H          7.33417        5.35163        0.03580
H          5.79844        5.38862        0.91732
H          6.04570        6.44697       -0.50263
