65

O          8.36393       -0.96473       -5.24186
C          9.76659       -0.83352       -4.97986
C          9.94598        0.17164       -3.85223
N          9.36455       -0.31122       -2.57916
C          8.61443        0.69050       -1.81496
C          7.24614        1.02028       -2.43963
C          6.40724       -0.22855       -2.80672
N          6.24068       -1.13491       -1.66398
N          5.59203       -0.80605       -0.57370
N          5.69307       -1.79834        0.29896
C          6.42698       -2.77305       -0.26579
N          6.79961       -2.36339       -1.50373
C          7.49529       -3.09350       -2.57442
O          6.49775       -3.68798       -3.36077
C          6.79327       -3.89194       -4.71543
C          8.10614       -4.13029       -5.12794
C          8.41445       -4.31426       -6.48539
C          9.83001       -4.59462       -6.92007
C          7.35631       -4.26597       -7.40174
C          6.04614       -4.06342       -6.96552
C          5.71356       -3.86958       -5.61689
C          4.25365       -3.68471       -5.22467
C          3.71004       -4.89109       -4.43484
C          3.95205       -2.35520       -4.50781
C          6.79562       -4.05557        0.37921
C          8.22883       -4.06068        0.99453
C          8.41659       -2.94217        2.02610
C          8.50412       -5.44196        1.59930
O          6.53067        1.95301       -1.65735
H          8.23124       -1.71774       -5.84334
H         10.30168       -0.47627       -5.87683
H         10.20314       -1.80820       -4.69110
H          9.45025        1.10881       -4.14606
H         11.01816        0.40712       -3.74766
H         10.11055       -0.67728       -1.98964
H          9.14522        1.65255       -1.68643
H          8.45335        0.28904       -0.79914
H          7.39138        1.52029       -3.41099
H          6.88148       -0.78018       -3.62785
H          5.39844        0.08568       -3.09854
H          8.13199       -3.82899       -2.05656
H          8.12377       -2.36631       -3.11487
H          8.91121       -4.18797       -4.39265
H         10.56194       -4.04822       -6.30950
H          9.98787       -4.32122       -7.97065
H         10.06204       -5.66643       -6.82301
H          7.55543       -4.39942       -8.46599
H          5.23848       -4.04427       -7.69997
H          3.70627       -3.65412       -6.18033
H          4.20006       -4.98790       -3.45606
H          3.86667       -5.82714       -4.98634
H          2.63087       -4.77736       -4.26121
H          4.31232       -2.36724       -3.47046
H          2.86715       -2.18592       -4.47409
H          4.40808       -1.50466       -5.03348
H          6.69319       -4.87743       -0.34511
H          6.05532       -4.22599        1.17432
H          8.94607       -3.89677        0.16906
H          7.69663       -3.03941        2.85199
H          8.28782       -1.93962        1.59329
H          9.42541       -2.98727        2.45647
H          7.81647       -5.65112        2.43211
H          9.52709       -5.49005        1.99458
H          8.39122       -6.24532        0.85792
H          6.35775        1.58424       -0.77319
