92

C          0.69186       -0.54510       -0.62208
C          2.22175       -0.52728       -0.57118
C          2.81937       -1.66343        0.26684
C          4.35032       -1.64466        0.31907
C          4.96042       -2.77455        1.15536
C          6.49069       -2.72492        1.21524
C          7.12119       -3.83635        2.06116
C          8.64682       -3.72725        2.15816
C          9.29651       -4.81041        3.02567
C         10.81274       -4.63487        3.16978
C         11.47118       -5.70922        4.04495
C         12.94403       -5.42811        4.28585
O         13.49788       -6.49489        5.07963
C         14.83941       -6.24684        5.44746
C         15.33484       -7.43216        6.20564
N         15.88615       -7.38991        7.39304
N         16.19390       -8.70231        7.69643
C         15.83411       -9.52073        6.67646
N         16.01278      -10.85302        6.58232
C         15.18646      -11.70651        5.71872
C         15.42137      -11.48606        4.21418
O         15.22083      -10.37297        3.69304
N         15.79183      -12.56442        3.50319
C         16.00907      -12.53058        2.05008
C         17.43455      -12.12547        1.65513
C         18.52558      -13.09292        2.12677
C         19.92861      -12.66124        1.69271
N         15.27578       -8.72634        5.73550
C         16.92333       -8.97495        8.94176
C         16.44279      -10.20500        9.71466
O         16.85577      -11.43824        9.11235
C         18.14350      -11.94452        9.56582
C         18.03297      -12.76685       10.84347
C         17.20633      -14.04874       10.69325
C         17.10274      -14.85690       11.99224
C         16.29817      -16.14961       11.83619
H          0.29828        0.28188       -1.22902
H          0.25731       -0.45344        0.38477
H          0.31722       -1.48377       -1.05746
H          2.56541        0.43972       -0.16568
H          2.62549       -0.58331       -1.59647
H          2.47782       -2.63295       -0.13762
H          2.41729       -1.60831        1.29416
H          4.68729       -0.67330        0.72279
H          4.75029       -1.69648       -0.70908
H          4.63898       -3.74870        0.74640
H          4.55408       -2.72969        2.18131
H          6.80394       -1.74484        1.61664
H          6.89755       -2.77209        0.18965
H          6.84638       -4.82022        1.64185
H          6.68976       -3.81015        3.07746
H          8.91064       -2.73440        2.56354
H          9.08154       -3.76210        1.14362
H          9.07800       -5.80574        2.60078
H          8.83465       -4.80100        4.02847
H         11.01682       -3.63757        3.59738
H         11.27927       -4.63664        2.16948
H         11.36686       -6.69940        3.57264
H         10.95940       -5.76718        5.01899
H         13.07450       -4.46854        4.82176
H         13.50063       -5.35739        3.33095
H         14.94632       -5.35886        6.09686
H         15.47833       -6.08877        4.55306
H         16.39518      -11.28957        7.44325
H         14.11144      -11.52998        5.90119
H         15.40444      -12.74088        6.01063
H         15.97600      -13.43072        3.99703
H         15.28243      -11.82047        1.63510
H         15.76491      -13.53153        1.66687
H         17.63404      -11.11063        2.03540
H         17.45673      -12.04979        0.55596
H         18.31162      -14.10260        1.73653
H         18.49890      -13.17654        3.22715
H         20.00757      -12.60697        0.59740
H         20.69166      -13.36760        2.04518
H         20.18279      -11.66845        2.09175
H         15.03491       -9.13348        4.79103
H         16.77664       -8.07219        9.54741
H         17.99881       -9.05743        8.71680
H         15.34438      -10.22457        9.76862
H         16.82430      -10.13446       10.74482
H         18.84537      -11.10229        9.68918
H         18.51061      -12.56312        8.73368
H         17.62171      -12.14298       11.65582
H         19.06121      -13.01572       11.15668
H         17.65829      -14.67891        9.90646
H         16.19361      -13.79428       10.33850
H         16.64439      -14.22843       12.77443
H         18.11739      -15.09540       12.35292
H         15.26735      -15.94506       11.51041
H         16.24231      -16.70150       12.78395
H         16.75556      -16.81764       11.09135
