41

C          9.13681        1.49443        0.38347
C          8.15439        1.31852        1.54391
C          6.70369        1.61996        1.14539
C          5.73489        1.38565        2.30905
N          4.32590        1.67905        1.96545
C          3.83075        2.88186        2.25302
O          4.48435        3.80882        2.80322
C          2.39049        3.26779        1.96046
S          2.37103        4.90697        2.80268
C          3.03289        6.08104        1.53604
C          2.88445        7.54463        1.97454
C          3.43893        7.82503        3.38919
C          4.92466        7.52115        3.61041
C          3.52492        8.42311        0.88459
I         -0.04652        5.36279        2.62908
C          3.56107        0.62781        1.29641
H         10.16536        1.28352        0.70264
H          9.11540        2.52119       -0.00951
H          8.90145        0.81372       -0.44741
H          8.44367        1.97606        2.38007
H          8.21998        0.28762        1.93000
H          6.42068        0.98789        0.28720
H          6.61772        2.66700        0.81199
H          5.99887        2.02278        3.16299
H          5.76764        0.33790        2.64321
H          1.62440        2.64941        2.44770
H          2.14406        3.38306        0.89651
H          2.50711        5.86820        0.59539
H          4.08531        5.77480        1.45879
H          1.80669        7.77855        1.99144
H          2.83580        7.26960        4.12953
H          3.24372        8.88614        3.60620
H          5.16638        6.45682        3.47713
H          5.21420        7.78679        4.63474
H          5.56702        8.10076        2.93372
H          4.60004        8.22755        0.77296
H          3.40165        9.48214        1.14644
H          3.04910        8.26513       -0.09287
H          4.05219        0.34286        0.35634
H          2.54582        0.96388        1.06456
H          3.49941       -0.25732        1.94451
