77

C          1.35194        1.85877       -1.22969
C          2.73073        2.03416       -1.86949
C          3.30764        0.71240       -2.39302
C          4.68732        0.90010       -2.99326
O          5.07528       -0.36330       -3.63506
C          6.37719       -0.55146       -3.88892
O          7.28503        0.20627       -3.61169
C          6.56629       -1.87204       -4.60593
C          6.47296       -3.08685       -3.87004
C          6.24888       -3.14617       -2.47282
C          6.20193       -4.36962       -1.83303
C          6.37217       -5.58281       -2.54685
C          6.59299       -5.56203       -3.90575
C          6.64663       -4.31561       -4.58679
C          6.83760       -4.25166       -5.97035
N          6.90934       -3.08159       -6.62659
C          6.80737       -1.85803       -5.96838
C          7.02924       -0.56995       -6.72379
C          5.84474       -0.02302       -7.56851
C          4.49452       -0.36651       -6.94947
O          4.18229       -1.54651       -6.77810
N          3.71243        0.70399       -6.62019
C          2.42175        0.73118       -6.04513
C          1.90378        1.99490       -5.71654
C          0.63975        2.10830       -5.14329
C         -0.12214        0.96279       -4.89520
C          0.39508       -0.29157       -5.22694
C          1.66231       -0.42387       -5.79930
C          6.87817       -3.15452       -8.09674
C          5.47702       -3.62815       -8.55377
O          4.90993       -4.55638       -8.01983
O          5.05940       -2.92240       -9.60326
C          3.73963       -3.30035      -10.15072
C          3.15061       -2.10985      -10.88282
C          2.84306       -0.91066       -9.97925
C          2.07035        0.21442      -10.67173
C          1.83274        1.42386       -9.75928
C          1.06083        2.55768      -10.43784
H          0.95164        2.81906       -0.87890
H          1.39525        1.18153       -0.36438
H          0.63366        1.43799       -1.94796
H          3.42424        2.48172       -1.13835
H          2.66040        2.74996       -2.70525
H          2.63632        0.29268       -3.15688
H          3.36322       -0.02542       -1.57610
H          5.45109        1.16613       -2.25011
H          4.68802        1.67148       -3.77956
H          6.11859       -2.22572       -1.90485
H          6.03187       -4.40548       -0.75668
H          6.32709       -6.53146       -2.01286
H          6.72284       -6.48657       -4.46960
H          6.92012       -5.15111       -6.57572
H          7.91732       -0.67219       -7.36554
H          7.30604        0.17969       -5.97400
H          5.83643       -0.47577       -8.57044
H          5.99261        1.05664       -7.70962
H          4.10066        1.61870       -6.82872
H          2.49575        2.89203       -5.91443
H          0.24978        3.09450       -4.89008
H         -1.11302        1.04961       -4.44996
H         -0.19325       -1.19017       -5.03847
H          2.06674       -1.40087       -6.04692
H          7.61226       -3.90140       -8.42803
H          7.14370       -2.19370       -8.53544
H          3.11510       -3.62158       -9.30690
H          3.90654       -4.15772      -10.81737
H          2.22184       -2.47168      -11.35516
H          3.81493       -1.81170      -11.71000
H          3.79199       -0.50333       -9.59730
H          2.28271       -1.25409       -9.09326
H          1.09864       -0.16970      -11.02683
H          2.61611        0.53787      -11.57564
H          2.80962        1.80273       -9.40799
H          1.29344        1.09640       -8.85440
H          1.59119        2.92603      -11.32864
H          0.91720        3.41045       -9.75989
H          0.06513        2.22206      -10.76198
