48

C          1.34938       -0.78748        2.93221
C          2.49748       -0.14117        2.18701
O          3.20494       -1.16424        1.45172
C          4.30220       -0.66776        0.71264
C          5.04538       -1.90564        0.19902
O          6.13316       -1.63542       -0.64946
C          5.77330       -1.37956       -2.00817
C          7.04291       -1.09771       -2.78893
C          6.78021       -0.66892       -4.23797
O          8.01594       -0.59627       -4.96832
C          8.48906       -1.80442       -5.43240
O          7.90667       -2.85050       -5.22739
C          9.77906       -1.61685       -6.19095
C         10.38281       -2.91723       -6.72265
C         11.68920       -2.67337       -7.47999
N          5.08522       -2.57167       -2.52578
C          4.22362       -3.20420       -1.74107
N          3.46133       -4.24637       -2.21760
C          3.45026       -4.71364       -3.55991
O          4.18438       -4.21900       -4.39655
C          2.47392       -5.82777       -3.81501
N          4.09373       -2.82801       -0.46611
H          0.81205       -0.02785        3.51444
H          1.71407       -1.55436        3.62761
H          0.63522       -1.24955        2.23802
H          3.20280        0.34521        2.88380
H          2.13492        0.62523        1.47838
H          4.99979       -0.08584        1.34260
H          3.97094       -0.02348       -0.12617
H          5.46753       -2.44912        1.05858
H          5.06467       -0.53162       -2.05504
H          7.66392       -2.00386       -2.77605
H          7.58715       -0.30553       -2.25736
H          6.35791        0.34343       -4.28495
H          6.10322       -1.36511       -4.75639
H         10.48369       -1.09280       -5.52322
H          9.58235       -0.90377       -7.00931
H          9.65173       -3.41481       -7.37675
H         10.55458       -3.60718       -5.88272
H         11.53508       -2.01412       -8.34675
H         12.10972       -3.61682       -7.85158
H         12.44629       -2.20300       -6.83556
H          5.23043       -2.96089       -3.46831
H          2.89543       -4.74960       -1.53890
H          2.60719       -6.65058       -3.09774
H          2.62615       -6.20101       -4.83154
H          1.44173       -5.45861       -3.71766
H          3.29044       -3.10579        0.09256
