63

N          2.33297        0.62345       -2.87284
C          2.32990        1.09262       -1.48258
C          2.92927        0.05040       -0.53763
N          4.37387       -0.17735       -0.74967
C          4.98497       -0.36285       -1.93992
N          6.27004       -0.59020       -1.67958
N          6.52063       -0.55412       -0.34104
C          5.35224       -0.30932        0.21980
C          5.15285       -0.23076        1.69233
C          4.35775       -1.47166        2.18183
O          3.84779       -2.21621        1.33800
N          4.26750       -1.66923        3.52214
C          3.60795       -2.89309        4.01876
C          2.23928       -2.65342        4.66615
C          1.15997       -2.14128        3.70736
C         -0.19127       -1.94402        4.39741
C          4.84079       -0.79655        4.54040
C          7.38914       -0.82986       -2.60763
C          6.95067       -1.21222       -4.00890
O          6.29353       -0.10702       -4.60196
C          6.05695       -0.28674       -6.00514
C          5.44562        0.99976       -6.54409
O          5.25014        0.80767       -7.92879
C          4.72889        1.96266       -8.58371
C          4.64649        1.65258      -10.07196
O          4.09826        2.79283      -10.70654
C          4.00347        2.63458      -12.11581
H          2.13680        1.39584       -3.50943
H          1.59401       -0.06651       -3.02181
H          1.32558        1.33107       -1.08696
H          2.91977        2.01975       -1.42710
H          2.42586       -0.92229       -0.62631
H          2.81042        0.37736        0.50126
H          4.49823       -0.28449       -2.90822
H          4.62517        0.69698        1.96553
H          6.15046       -0.17982        2.14700
H          4.29347       -3.35325        4.74814
H          3.51228       -3.57051        3.16163
H          2.33628       -1.96481        5.52265
H          1.91897       -3.61551        5.09811
H          1.05611       -2.85021        2.87031
H          1.48760       -1.18760        3.25960
H         -0.55933       -2.88788        4.82471
H         -0.95276       -1.57986        3.69479
H         -0.11977       -1.21616        5.21880
H          5.26712        0.11055        4.10396
H          5.63205       -1.32328        5.09704
H          4.06562       -0.48921        5.25674
H          7.98799       -1.63308       -2.16024
H          7.99584        0.08643       -2.63423
H          6.29920       -2.10920       -3.99206
H          7.86368       -1.48164       -4.57246
H          5.37437       -1.13791       -6.17990
H          7.00825       -0.49552       -6.52613
H          6.12789        1.85007       -6.34786
H          4.48685        1.21202       -6.02780
H          5.38739        2.83532       -8.41602
H          3.72384        2.21272       -8.19399
H          4.01250        0.75888      -10.23666
H          5.65694        1.42392      -10.46433
H          3.57449        3.56145      -12.51445
H          3.34729        1.78632      -12.38384
H          4.99750        2.47014      -12.57048
