63

C          0.60863       -1.09846        0.83914
C          2.12297       -1.25938        0.66877
C          2.86165       -1.08737        1.98421
O          4.28512       -1.19570        1.74822
C          5.07627       -0.81029        2.88723
C          6.56777       -0.83314        2.53677
C          6.98414       -2.22945        2.06879
N          6.39308       -2.46740        0.69664
C          6.98353       -1.52675       -0.32400
C          6.70170       -0.08745        0.09735
C          7.12416        0.26744        1.55055
C          6.59019        1.69013        1.91413
C          5.21956        2.09671        1.35933
O          4.72983        3.13472        2.19822
C          3.44898        3.58395        1.82490
C          2.84224        4.41806        2.95380
C          2.30423        3.66469        4.22540
C          3.26035        2.87828        5.19606
C          4.41631        3.67824        5.87213
F          4.89267        2.92214        6.90255
F          5.43176        3.86819        4.98699
F          2.45791        2.41196        6.19202
F          3.77489        1.78880        4.54443
F          1.67112        4.59170        4.99648
F          1.37772        2.75592        3.78842
F          3.70909        5.38636        3.37043
F          1.74023        5.04187        2.42666
C          8.66348        0.31183        1.71968
C          9.22652        0.41953        3.00503
C         10.60648        0.50493        3.19292
C         11.46930        0.48971        2.09497
C         10.93079        0.40700        0.81168
C          9.54700        0.32244        0.62863
H          0.09398       -1.22230       -0.12148
H          0.35101       -0.10341        1.22891
H          0.19946       -1.84632        1.53288
H          2.50345       -0.51491       -0.04942
H          2.35077       -2.25344        0.24972
H          2.55621       -1.84794        2.72506
H          2.65857       -0.09359        2.42307
H          4.89177       -1.51684        3.71826
H          4.77000        0.18619        3.23509
H          7.07134       -0.68217        3.50189
H          6.59727       -3.01414        2.73227
H          8.07414       -2.33027        1.98446
H          5.36672       -2.26164        0.80837
H          6.52122       -3.44287        0.40656
H          6.52304       -1.75886       -1.29293
H          8.05580       -1.75665       -0.37716
H          5.62324        0.08319       -0.01119
H          7.18924        0.58274       -0.62320
H          7.33095        2.42763        1.57692
H          6.54730        1.79391        3.00915
H          4.49636        1.26040        1.35124
H          5.30501        2.45906        0.31670
H          2.76077        2.74481        1.61009
H          3.48081        4.24084        0.93566
H          4.07314        4.64957        6.26040
H          8.59007        0.46712        3.89052
H         11.00539        0.59096        4.20418
H         12.54782        0.55251        2.23939
H         11.58656        0.41254       -0.05954
H          9.17593        0.28726       -0.39565
