74

C          7.53674       -4.07962       -7.24235
C          8.47926       -3.83166       -6.06208
C          8.79259       -5.09683       -5.25509
C          9.73081       -4.85217       -4.06893
C         10.04910       -6.11570       -3.26270
C         10.99643       -5.86922       -2.08414
C         11.31728       -7.13228       -1.27850
C         12.27786       -6.88585       -0.11076
C         12.55597       -8.14867        0.71190
C         13.51894       -7.94842        1.87135
O         12.96679       -6.95754        2.75775
C         13.73745       -6.66634        3.89317
C         13.70403       -7.81416        4.94797
O         12.44494       -8.47745        4.99996
C         11.39928       -7.64403        5.50737
C         10.06969       -8.35538        5.29082
C          9.78456       -8.59402        3.80145
C          8.40261       -9.17138        3.55814
F          7.42157       -8.27499        4.02471
C         11.67404       -7.39252        6.98377
N         13.04697       -6.72725        7.16825
C         14.14854       -7.41635        6.36400
C         13.04542       -5.17877        7.01435
O         13.88079       -4.63082        6.35770
O         12.07239       -4.72422        7.76118
C         11.89447       -3.23639        7.80595
C         10.92341       -2.77892        6.73740
C         10.69315       -1.26015        6.83164
C          9.67215       -0.75882        5.80778
H          7.33574       -3.15416       -7.79929
H          6.56916       -4.48028       -6.90452
H          7.96436       -4.80579       -7.94993
H          8.03869       -3.07412       -5.39145
H          9.42347       -3.39480       -6.42976
H          9.23929       -5.85377       -5.92405
H          7.84835       -5.53910       -4.89020
H          9.28342       -4.09564       -3.39999
H         10.67323       -4.40857       -4.43606
H         10.49134       -6.87381       -3.93266
H          9.10810       -6.55723       -2.88926
H         10.55509       -5.11146       -1.41253
H         11.93658       -5.42743       -2.45880
H         11.74469       -7.89638       -1.95111
H         10.37710       -7.56520       -0.89204
H         11.86404       -6.10593        0.54815
H         13.23146       -6.48443       -0.49674
H         12.97849       -8.93575        0.06559
H         11.60879       -8.55256        1.10657
H         14.50702       -7.59836        1.51477
H         13.66475       -8.90466        2.40608
H         13.33312       -5.72787        4.29256
H         14.79992       -6.47164        3.64504
H         14.41047       -8.59610        4.63075
H         11.38005       -6.68492        4.95456
H          9.26522       -7.74075        5.72431
H         10.07788       -9.31423        5.83573
H         10.52900       -9.28722        3.38214
H          9.88690       -7.65034        3.24253
H          8.25037      -10.12335        4.09229
H          8.22015       -9.32930        2.48507
H         11.73103       -8.34819        7.52289
H         10.93697       -6.74016        7.46267
H         13.28688       -6.85945        8.16107
H         14.38926       -8.31940        6.93933
H         15.01270       -6.74148        6.36032
H         12.89055       -2.78798        7.70025
H         11.51352       -3.07456        8.82093
H          9.96672       -3.31124        6.85970
H         11.31903       -3.03197        5.74038
H         11.65259       -0.73773        6.68739
H         10.35231       -1.00506        7.84833
H          9.99360       -0.97487        4.77910
H          9.53703        0.32679        5.89293
H          8.69013       -1.22912        5.95925
