53

C          3.34189       -2.98332       -1.65002
C          4.04892       -1.66541       -1.32439
C          4.80916       -1.69567        0.00637
C          5.48888       -0.36663        0.35178
C          6.23057       -0.38945        1.69215
C          6.85041        0.96290        2.06402
C          7.57217        0.93377        3.41972
C          8.07622        2.31200        3.80763
O          8.64676        2.27522        5.17673
C          9.96052        2.30770        5.30206
O         10.80565        2.37746        4.42351
C         10.36754        2.27055        6.77687
S         12.16587        2.03653        6.75920
C         12.66042        3.80328        6.16506
O         11.94650        4.73735        6.37639
O         13.82900        3.65731        5.61033
C         14.44933        4.89036        5.00731
C         13.93612        5.09580        3.60252
C         12.60724        2.21918        8.53347
C         12.23911        0.96257        9.34785
C         12.82762        1.05987       10.71382
C         12.15053        1.21586       11.85974
F         10.82551        1.30507       11.90810
F         12.70328        1.28609       13.05071
F         14.18180        0.99137       10.76472
H          2.80622       -2.92536       -2.60713
H          2.60697       -3.24479       -0.87422
H          4.05768       -3.81584       -1.72059
H          3.30904       -0.84751       -1.29849
H          4.75027       -1.41153       -2.13710
H          5.56574       -2.49956       -0.02291
H          4.11101       -1.96833        0.81748
H          4.72891        0.43411        0.37142
H          6.19389       -0.09425       -0.45299
H          7.01950       -1.16088        1.66459
H          5.53221       -0.69696        2.48981
H          6.05621        1.72875        2.08910
H          7.55472        1.27722        1.27530
H          8.41930        0.22990        3.38045
H          6.88387        0.57114        4.19968
H          7.26052        3.04145        3.88818
H          8.84926        2.68949        3.12690
H          9.91273        1.43046        7.31752
H         10.12674        3.21658        7.28276
H         15.51675        4.64985        5.04608
H         14.22358        5.72603        5.68070
H         14.13362        4.22029        2.97227
H         14.46366        5.95610        3.16671
H         12.86195        5.31885        3.58881
H         12.13279        3.12862        8.92533
H         13.69817        2.35923        8.51328
H         12.63049        0.05930        8.85128
H         11.15074        0.85217        9.43789
