110

C         -0.43735       -5.86139       14.55838
C          1.07392       -6.00872       14.75340
C          1.81753       -6.40474       13.47325
C          3.33054       -6.55847       13.65865
C          4.07066       -6.94137       12.37339
C          5.58406       -7.10175       12.55166
C          6.31345       -7.47029       11.25601
C          7.82888       -7.63122       11.41517
C          8.54152       -7.97862       10.10421
C         10.05843       -8.14644       10.24119
C         10.74906       -8.48727        8.91674
C         12.26585       -8.67488        9.03013
C         12.92767       -9.01381        7.69045
C         14.44225       -9.23314        7.77535
C         15.06657       -9.57794        6.41920
C         16.57730       -9.83139        6.47350
C         17.15469      -10.18653        5.09813
C         18.66853      -10.39519        5.05114
S         19.26090      -11.67699        6.22693
C         18.39719      -13.17384        5.65294
C         18.77157      -14.42887        6.44405
C         18.05969      -15.64220        5.81722
N         18.44569      -15.78472        4.41589
C         17.57109      -16.69839        3.65133
C         18.02806      -16.84462        2.22144
C         17.27978      -16.33095        1.15622
C         17.68318      -16.49411       -0.17119
C         18.86456      -17.18466       -0.44931
C         19.63527      -17.70098        0.59376
C         19.21924      -17.53015        1.91684
O         19.95145      -18.01482        2.98157
C         20.98397      -11.93890        5.66584
C         21.86819      -10.71578        5.91294
C         23.32943      -11.00283        5.52954
C         24.22730       -9.77052        5.69205
C         25.67415      -10.00696        5.24531
C         26.55482       -8.75899        5.37337
C         27.98447       -8.95851        4.86040
C         28.85856       -7.70488        4.98121
C         30.26832       -7.89111        4.41500
H         -0.93922       -5.57259       15.49219
H         -0.88979       -6.80437       14.21654
H         -0.66998       -5.09356       13.80538
H          1.27320       -6.76062       15.53585
H          1.49032       -5.06088       15.13489
H          1.62062       -5.65027       12.69086
H          1.39913       -7.35162       13.08786
H          3.52751       -7.31943       14.43449
H          3.74746       -5.61426       14.05165
H          3.87527       -6.17720       11.60029
H          3.64961       -7.88245       11.97719
H          5.78263       -7.87316       13.31663
H          6.00586       -6.16373       12.95402
H          6.10941       -6.69792       10.49337
H          5.88915       -8.40729       10.85368
H          8.03761       -8.41463       12.16506
H          8.25457       -6.69915       11.82700
H          8.32961       -7.19286        9.35764
H          8.10988       -8.90768        9.69139
H         10.27427       -8.93698       10.98145
H         10.49421       -7.21959       10.65392
H         10.53615       -7.69143        8.18134
H         10.30119       -9.40703        8.50052
H         12.48249       -9.47512        9.75967
H         12.72055       -7.75757        9.44340
H         12.71884       -8.20566        6.96771
H         12.45473       -9.91987        7.27206
H         14.65595      -10.04270        8.49555
H         14.92488       -8.32830        8.18367
H         14.86390       -8.76106        5.70528
H         14.56528      -10.47044        6.00500
H         16.78014      -10.64380        7.19526
H         17.09366       -8.94143        6.87209
H         16.94941       -9.36702        4.38981
H         16.64026      -11.06557        4.67922
H         19.20597       -9.49010        5.36842
H         19.02215      -10.69157        4.05307
H         18.59639      -13.31980        4.58060
H         17.33230      -12.93412        5.78830
H         18.48757      -14.32925        7.50176
H         19.85908      -14.60067        6.41285
H         16.96894      -15.48440        5.85666
H         18.26674      -16.53574        6.43905
H         19.39719      -16.15742        4.36303
H         16.55421      -16.27781        3.66217
H         17.51383      -17.69980        4.12465
H         16.34953      -15.80364        1.37871
H         17.07615      -16.09263       -0.98191
H         19.19224      -17.32636       -1.47942
H         20.56077      -18.24225        0.38074
H         20.69560      -18.53634        2.63954
H         20.94427      -12.23094        4.60569
H         21.32770      -12.80135        6.25531
H         21.81032      -10.41888        6.97239
H         21.50907       -9.86052        5.32011
H         23.37003      -11.34926        4.48270
H         23.71626      -11.83203        6.14528
H         24.21472       -9.44434        6.74624
H         23.80232       -8.93447        5.10977
H         25.67809      -10.34907        4.19555
H         26.11302      -10.83055        5.83457
H         26.58444       -8.43903        6.42961
H         26.08541       -7.92683        4.81958
H         27.94990       -9.27630        3.80322
H         28.46067       -9.78997        5.40920
H         28.92172       -7.40702        6.04147
H         28.36206       -6.86724        4.46233
H         30.80450       -8.70071        4.93214
H         30.86790       -6.97697        4.52009
H         30.23810       -8.14662        3.34523
