98

C          0.76063        0.74086        0.19839
C          2.28606        0.62250        0.16010
C          2.79792       -0.31558       -0.93835
C          4.32452       -0.43502       -0.97844
C          4.84237       -1.38687       -2.06128
C          6.37096       -1.48459       -2.10397
C          6.89590       -2.46064       -3.16182
C          8.42620       -2.52964       -3.21315
C          8.95214       -3.53408       -4.24392
C         10.48831       -3.56682       -4.31144
C         10.93696       -4.59918       -5.33586
N         12.41812       -4.76337       -5.52518
C         13.24368       -3.96551       -4.84539
C         14.63188       -4.06013       -4.96889
C         15.47419       -3.21738       -4.19380
C         16.84052       -3.33912       -4.29575
C         17.39142       -4.30524       -5.17039
C         16.58832       -5.12519       -5.94120
C         15.17322       -5.02680       -5.87535
C         14.26954       -5.85212       -6.63893
C         12.89573       -5.72820       -6.42759
C         11.87149       -6.64417       -7.03042
C         11.74938       -7.96600       -6.22365
O         10.74946       -8.81554       -6.75455
C          9.43422       -8.49412       -6.36260
C          8.43655       -9.29235       -7.20502
C          8.16942       -8.81751       -8.68033
C          9.29830       -8.82914       -9.77700
C          9.94903      -10.20449      -10.11281
F         10.65543      -10.05510      -11.27230
F         10.82021      -10.56834       -9.13500
F          8.69416       -8.38841      -10.91616
F         10.26576       -7.92579       -9.44615
F          7.16010       -9.59186       -9.16819
F          7.72819       -7.52454       -8.60406
F          8.76574      -10.61485       -7.23340
F          7.22249       -9.17752       -6.57526
C         14.92507       -6.85197       -7.57947
C         14.22423       -7.51667       -8.77417
C         15.27454       -8.31769       -9.56188
S         14.58615       -9.66248      -10.55759
C         14.32636      -10.93166       -9.31649
S         14.64990      -10.69353       -7.68967
N         13.86587      -12.09492       -9.83394
C         13.70928      -12.35333      -11.27211
C         12.44154      -13.16886      -11.53743
O         12.40220      -14.36187      -10.76711
C         12.43927      -14.04470       -9.37668
C         13.71337      -13.29656       -9.00130
H          0.42915        1.42054        0.99514
H          0.28808       -0.23647        0.37781
H          0.36572        1.12751       -0.75303
H          2.65280        0.26746        1.13821
H          2.73002        1.62245        0.01766
H          2.43263        0.03743       -1.91908
H          2.35575       -1.31770       -0.79636
H          4.68922       -0.77393        0.00731
H          4.76378        0.56639       -1.13317
H          4.46978       -1.05813       -3.04735
H          4.41606       -2.39224       -1.89772
H          6.74460       -1.79022       -1.11083
H          6.79474       -0.48213       -2.29010
H          6.51083       -2.16915       -4.15452
H          6.48999       -3.46790       -2.96305
H          8.81504       -2.79474       -2.21467
H          8.82864       -1.52740       -3.44119
H          8.54772       -3.28509       -5.23980
H          8.57273       -4.54139       -4.00045
H         10.88855       -3.80849       -3.31299
H         10.85140       -2.56166       -4.58099
H         10.52065       -4.34215       -6.32027
H         10.54195       -5.58375       -5.05202
H         12.78980       -3.23808       -4.17855
H         15.02272       -2.48723       -3.52058
H         17.49828       -2.70257       -3.70459
H         18.47520       -4.40745       -5.23609
H         17.06311       -5.85883       -6.58747
H         12.14794       -6.89451       -8.05390
H         10.89291       -6.16145       -7.10092
H         11.56522       -7.75843       -5.15137
H         12.68642       -8.53615       -6.29764
H          9.18990       -7.42366       -6.48871
H          9.24483       -8.77437       -5.30959
H          9.19087      -10.99174      -10.24956
H         15.32640       -7.67243       -6.95464
H         15.80979       -6.34212       -7.98789
H         13.74766       -6.77743       -9.43563
H         13.46380       -8.23101       -8.44122
H         16.00310       -8.77906       -8.87952
H         15.81349       -7.69176      -10.28838
H         14.59544      -12.90070      -11.63791
H         13.63971      -11.40512      -11.81886
H         12.41361      -13.47069      -12.59274
H         11.55134      -12.54771      -11.32492
H         12.39422      -14.99874       -8.83598
H         11.55363      -13.43882       -9.10216
H         14.59304      -13.94554       -9.15481
H         13.69473      -12.98118       -7.95174
