47

N          3.59802       -3.42594       -0.61786
C          2.81013       -2.73103       -1.63467
C          2.80752       -1.20205       -1.39157
C          4.18876       -0.60774       -1.49053
C          4.66948       -0.23467       -2.75096
C          5.95813        0.26404       -2.93299
C          6.79611        0.40440       -1.83180
N          6.30999        0.05359       -0.61524
C          5.05847       -0.44997       -0.38369
C          4.66890       -0.77173        0.98676
C          5.44531       -0.72921        2.08349
C          8.21331        0.90845       -1.95804
C          8.56758        2.17591       -1.13739
P          9.07050        1.80934        0.56941
O          8.13315        0.83130        1.22078
O         10.56426        1.32277        0.35952
C         11.40719        0.89011        1.48829
C         12.77275        0.54147        0.94161
O          9.23173        3.18255        1.35858
C          8.14737        3.76761        2.16001
C          8.75979        4.74336        3.13949
H          3.90383       -4.33912       -0.95079
H          3.04955       -3.59283        0.22610
H          1.75852       -3.06341       -1.69986
H          3.26520       -2.93048       -2.61650
H          2.34047       -0.98611       -0.42107
H          2.16718       -0.73263       -2.15260
H          4.01157       -0.34009       -3.61633
H          6.31703        0.54635       -3.92159
H          6.95932        0.23656        0.20403
H          3.63314       -1.08355        1.09821
H          6.49864       -0.44808        2.07743
H          5.01981       -0.99210        3.05138
H          8.37813        1.12317       -3.02150
H          8.90924        0.09287       -1.70197
H          7.71991        2.87615       -1.09896
H          9.40002        2.70728       -1.61806
H         10.92024        0.02647        1.96338
H         11.45648        1.71888        2.20875
H         12.71218       -0.27631        0.21224
H         13.42017        0.21583        1.76701
H         13.24016        1.41084        0.46197
H          7.61526        2.95137        2.66731
H          7.45516        4.27305        1.46932
H          9.44926        4.23446        3.82499
H          7.96195        5.20659        3.73618
H          9.30435        5.54011        2.61712
