76

C          0.90654        0.75943        0.14048
C          2.40407        0.54245        0.37258
C          3.28491        1.23771       -0.67137
C          4.78778        1.05840       -0.43280
C          5.65185        1.76423       -1.48111
C          7.15997        1.65740       -1.22782
C          7.97402        2.40878       -2.28564
C          9.47270        2.39250       -2.03889
O         10.08949        3.12812       -3.11091
C         11.43727        3.47107       -2.91207
C         11.76189        4.51042       -3.99396
O         13.17691        4.72267       -4.15125
C         13.62152        5.63670       -3.18954
N         12.38526        6.53009       -2.92775
C         11.23860        5.94652       -3.75366
C          9.90311        6.17814       -3.05702
C          8.68444        5.90431       -3.95012
O          7.54500        6.01573       -3.12825
Si         5.94389        6.05107       -3.68148
C          5.67797        7.62080       -4.67962
C          5.59605        4.53819       -4.74030
C          4.93502        6.05038       -2.10747
C         14.79440        6.47303       -3.72159
C         14.33074        7.53923       -4.68616
C         14.09486        8.84802       -4.22584
C         13.55949        9.82310       -5.07343
C         13.24648        9.52632       -6.40794
C         13.49168        8.21896       -6.86331
C         14.01846        7.23937       -6.02243
C         12.70868       10.58268       -7.33563
H          0.30229        0.25027        0.90329
H          0.59352        0.37516       -0.84180
H          0.64886        1.82876        0.17297
H          2.62528       -0.53820        0.37191
H          2.67806        0.90556        1.37768
H          3.04744        2.31678       -0.68547
H          3.02570        0.86029       -1.67647
H          5.03314       -0.01786       -0.41867
H          5.04572        1.44064        0.57055
H          5.37066        2.83143       -1.51992
H          5.42060        1.35646       -2.48104
H          7.45750        0.59518       -1.20597
H          7.38924        2.06044       -0.22596
H          7.64774        3.46005       -2.32296
H          7.78001        1.98033       -3.28250
H          9.87747        1.36389       -2.01170
H          9.71926        2.87816       -1.07400
H         12.12192        2.61007       -3.03674
H         11.59721        3.86860       -1.88519
H         11.39367        4.12697       -4.95461
H         13.85868        5.15097       -2.22695
H         12.60936        7.49286       -3.25500
H         12.14303        6.55420       -1.93064
H         11.28783        6.48475       -4.71166
H          9.84125        7.22636       -2.72202
H          9.81721        5.54145       -2.16333
H          8.76036        4.89321       -4.38683
H          8.66571        6.63670       -4.78136
H          6.28909        7.64128       -5.59338
H          5.91872        8.51304       -4.08487
H          4.62673        7.70132       -4.99162
H          6.26933        4.47850       -5.60770
H          4.56878        4.58394       -5.12995
H          5.69330        3.60878       -4.16433
H          5.15658        6.93389       -1.49338
H          5.14095        5.15470       -1.50569
H          3.86044        6.06056       -2.33801
H         15.49024        5.76286       -4.19011
H         15.32023        6.92352       -2.86700
H         14.37513        9.12369       -3.20447
H         13.39978       10.83391       -4.69351
H         13.26921        7.96550       -7.90177
H         14.19624        6.23383       -6.40600
H         13.53344       11.08466       -7.86537
H         12.15320       11.35639       -6.79065
H         12.04820       10.15235       -8.09941
