64

C          0.77539        0.23468        0.67303
C          2.29429        0.12752        0.51795
C          2.80828       -1.31607        0.55982
C          4.32810       -1.43399        0.40833
C          4.83934       -2.87793        0.44506
C          6.36009       -2.99370        0.30096
C          6.87350       -4.43718        0.33348
C          8.39717       -4.54346        0.21610
C          8.91868       -5.98527        0.24791
C         10.44937       -6.05616        0.17995
C         10.97919       -7.47572        0.22376
O         12.42501       -7.43517        0.16277
C         13.00815       -8.70548        0.25664
C         14.50132       -8.57738        0.16930
N         15.02126       -7.34148        0.02185
C         16.34077       -7.05567       -0.11158
C         16.75662       -5.61991       -0.26820
C         15.79927       -4.76869       -1.09993
O         14.57868       -4.65392       -0.36743
C         13.59785       -3.78994       -0.99218
C         12.77886       -3.11341        0.08876
C         17.22420       -8.13459       -0.07914
C         16.75243       -9.42876        0.08808
C         15.37168       -9.68781        0.21691
N         14.88423      -10.96078        0.32842
H          0.43828        1.27981        0.63774
H          0.44017       -0.18988        1.63115
H          0.25277       -0.30919       -0.12816
H          2.78824        0.71132        1.31331
H          2.60204        0.59436       -0.43322
H          2.31530       -1.90048       -0.23733
H          2.49843       -1.78500        1.51068
H          4.82009       -0.85271        1.20833
H          4.63804       -0.96136       -0.54058
H          4.35109       -3.45816       -0.35767
H          4.52589       -3.35199        1.39190
H          6.84646       -2.41632        1.10718
H          6.67472       -2.51567       -0.64362
H          6.40161       -5.01190       -0.48266
H          6.54624       -4.91997        1.27101
H          8.86529       -3.97100        1.03632
H          8.72764       -4.05761       -0.71896
H          8.48044       -6.55304       -0.59071
H          8.56689       -6.47974        1.16966
H         10.88061       -5.49610        1.02459
H         10.80536       -5.57025       -0.74298
H         10.60264       -8.07320       -0.62727
H         10.67582       -7.98353        1.15815
H         12.65957       -9.37745       -0.55879
H         12.73847       -9.20341        1.21562
H         14.36097       -6.53508       -0.01072
H         17.75613       -5.59608       -0.72305
H         16.85216       -5.15754        0.72959
H         15.62588       -5.22628       -2.09372
H         16.24084       -3.77014       -1.26113
H         12.96762       -4.39694       -1.66540
H         14.12495       -3.04216       -1.60787
H         12.33320       -3.85277        0.76504
H         11.96240       -2.53447       -0.36457
H         13.39959       -2.43032        0.68270
H         18.29200       -7.94967       -0.18574
H         17.45659      -10.26232        0.11303
H         15.53315      -11.71886        0.49985
H         13.93661      -11.12772        0.64095
