65

F          0.79394        0.61627       -1.39448
C          1.96504        1.27514       -1.20712
C          1.95359        2.03176        0.15413
C          1.41522        1.33371        1.46196
C          1.99688       -0.04311        1.95579
C          3.44603       -0.08557        2.44644
O          4.32413        0.02295        1.34605
C          5.68663       -0.08475        1.69666
C          6.47198       -0.00029        0.38865
C          7.98978        0.18143        0.43742
O          8.69792       -1.00161        0.90953
C          8.79059       -0.96824        2.29283
N          8.89497        0.56563        2.61452
C          8.63739        1.29568        1.30051
Si         7.91453        3.11193        1.56401
C          7.26266        3.21316        3.33293
C          9.39915        4.23821        1.35817
C          6.57324        3.48865        0.31671
C          9.99552       -1.72683        2.80898
C          9.89116       -3.21326        2.43756
C         10.79530       -4.16707        3.22645
C         12.27051       -4.40441        2.72538
C         13.33337       -3.23809        2.72934
C         13.68639       -2.52881        4.08832
F         13.92744       -3.41510        5.05834
F         14.77218       -1.76224        3.90539
F         12.66782       -1.71800        4.47746
F         14.47823       -3.76727        2.24624
F         12.91281       -2.26302        1.86048
F         12.79126       -5.42040        3.45262
F         12.17848       -4.80146        1.42156
F         10.84378       -3.81076        4.55238
F         10.21991       -5.40767        3.16593
F          1.22700       -0.38193        3.03925
F          1.79190       -0.97653        0.98597
F          1.62677        2.23308        2.47583
F          0.08038        1.17057        1.30714
F          3.22495        2.48906        0.38684
F          1.15842        3.12441       -0.03168
F          2.99217        0.37954       -1.25749
H          2.09812        2.01953       -2.01018
H          3.56122       -1.05563        2.96482
H          3.59605        0.72800        3.17965
H          5.86381       -1.04363        2.22412
H          5.95880        0.73653        2.39501
H          6.05434        0.83480       -0.19145
H          6.27227       -0.90443       -0.20415
H          8.33267        0.31192       -0.59763
H          7.85909       -1.29062        2.79377
H          9.82583        0.78952        2.98596
H          8.20686        0.82994        3.33145
H          9.64186        1.43939        0.87637
H          8.04578        3.08178        4.09531
H          6.43253        2.52498        3.54856
H          6.86418        4.22769        3.48309
H         10.20298        4.00592        2.07154
H          9.10616        5.28423        1.52520
H          9.81565        4.17132        0.34306
H          5.64647        2.93354        0.50575
H          6.89630        3.29749       -0.71577
H          6.33318        4.55991        0.38958
H         10.03030       -1.62344        3.90404
H         10.90547       -1.27597        2.38943
H         10.06477       -3.36756        1.36501
H          8.87416       -3.57677        2.65153
