32

C          1.04981        0.14558        0.04920
C          2.49760        0.21817       -0.28092
C          3.26688        1.30812       -0.59160
N          4.55685        0.86005       -0.76967
C          4.62629       -0.46790       -0.57513
N          3.36723       -0.88326       -0.28177
C          2.95846       -2.26770        0.02443
C          2.51934       -3.11244       -1.18427
O          1.37098       -2.46232       -1.73277
C          3.59572       -3.34905       -2.23940
C          5.86801       -1.29212       -0.67674
C          7.08689       -0.75743        0.08865
C          8.24573       -1.73564        0.12466
Br         7.75433       -3.31529        1.19243
Br         7.80182        0.88865       -0.79537
H          0.60296        1.13845       -0.07584
H          0.89078       -0.16074        1.09411
H          0.52790       -0.56492       -0.60278
H          2.99734        2.35252       -0.69035
H          5.38834        1.42014       -0.97982
H          2.12189       -2.19691        0.72966
H          3.78767       -2.76582        0.54182
H          2.23160       -4.08612       -0.74226
H          1.04361       -2.98644       -2.48115
H          3.91807       -2.40632       -2.70326
H          3.19506       -3.98817       -3.03826
H          4.46662       -3.87059       -1.81769
H          6.13921       -1.43051       -1.73628
H          5.66095       -2.29495       -0.27507
H          6.82211       -0.42562        1.09955
H          9.11908       -1.30116        0.61864
H          8.51808       -2.10096       -0.87155
