73

N          1.00652        0.14904       -0.59194
C          2.35001        0.25937       -0.69368
N          2.99267       -0.63526       -1.46162
C          4.42571       -0.58898       -1.80214
C          4.66762        0.16661       -3.14520
C          3.87683        1.43353       -3.46302
O          2.49786        1.09847       -3.64381
C          1.76902        2.09385       -4.32530
C          0.33979        1.61539       -4.57674
C          0.09293        0.50412       -5.66531
C          0.55305       -0.99186       -5.46822
C         -0.14241       -1.79272       -4.32395
F          0.09007       -3.10902       -4.51189
F          0.43391       -1.45039       -3.10541
F          0.22173       -1.62027       -6.62668
F          1.90382       -1.06372       -5.31875
F         -1.25654        0.44203       -5.86241
F          0.68417        0.94261       -6.80960
F         -0.24622        1.19911       -3.40026
F         -0.35993        2.70199       -5.01487
C          5.12939        0.02458       -0.57589
C          4.47941        1.30627       -0.07537
N          3.01469        1.19733       -0.00060
C          2.32987        2.16951        0.86284
C          2.10717        1.67826        2.29953
C          1.42031        2.76091        3.13951
C          1.26253        2.35479        4.60695
S          0.48058        3.70345        5.52018
O          1.39134        4.82979        5.56451
O         -0.87102        3.83767        5.03947
O          0.40120        3.06143        7.00763
C          4.85210       -2.07163       -1.95680
C          6.32729       -2.26481       -2.33019
C          6.79981       -3.72244       -2.39980
C          7.49061       -4.32567       -1.11775
C          6.69109       -4.49697        0.23052
C          5.44809       -5.46048        0.26958
F          5.73950       -6.65576       -0.25346
F          5.07210       -5.61716        1.55075
F          4.40557       -4.92546       -0.40801
F          7.57620       -4.95569        1.14361
F          6.25958       -3.25866        0.64045
F          7.99591       -5.53780       -1.44397
F          8.52990       -3.48981       -0.80962
F          5.78772       -4.56530       -2.78058
F          7.77089       -3.80409       -3.36523
H          0.51327       -0.35279       -1.32311
H          0.47647        0.87316       -0.12693
H          2.40387       -1.20770       -2.06248
H          4.46910       -0.53555       -3.96981
H          5.73633        0.42224       -3.20841
H          4.28169        1.85818       -4.39898
H          3.97352        2.21668       -2.68784
H          2.22678        2.34978       -5.29765
H          1.67596        3.02387       -3.73279
H         -1.22356       -1.60113       -4.26387
H          6.18077        0.23695       -0.80611
H          5.11902       -0.72345        0.23019
H          4.73591        2.16998       -0.71040
H          4.84821        1.53117        0.93512
H          1.38277        2.48125        0.39449
H          2.95509        3.07427        0.86768
H          3.08064        1.41337        2.74268
H          1.50633        0.75467        2.29315
H          0.42739        2.98907        2.72078
H          2.00508        3.69335        3.09043
H          2.23022        2.16559        5.09201
H          0.61454        1.47700        4.73803
H          1.03413        3.55050        7.56848
H          4.22441       -2.53325       -2.73500
H          4.61275       -2.57869       -1.01531
H          6.99939       -1.73463       -1.64207
H          6.52377       -1.86503       -3.33445
