69

N          3.11913       -2.17837        2.34570
C          2.51157       -2.16526        0.99776
C          3.32759       -1.28964        0.01687
C          4.83468       -1.19244        0.30683
N          5.38873       -2.48676        0.87298
C          5.34408       -3.62508       -0.08790
C          5.19685       -4.93756        0.68210
O          4.83889       -4.97255        1.84571
O          5.48597       -5.97213       -0.10198
C          5.31653       -7.31974        0.48014
C          3.88718       -7.81638        0.33919
C          3.74430       -9.25351        0.86069
C          2.30842       -9.78272        0.77281
C          2.16146      -11.21957        1.28398
C          0.72536      -11.74909        1.21923
C          0.57993      -13.18827        1.72656
C         -0.85667      -13.71197        1.66183
C          6.71781       -2.34551        1.59089
C          7.95810       -2.32843        0.69729
O          7.70064       -1.34724       -0.30091
C          8.54342       -1.39042       -1.47467
C          7.85184       -0.57923       -2.53528
C          8.13810        0.78330       -2.68994
C          7.43858        1.55235       -3.62346
C          6.44446        0.96421       -4.41008
C          6.15621       -0.39742       -4.26871
C          6.85825       -1.16335       -3.33610
C          9.20398       -2.04005        1.53768
H          2.71073       -2.91512        2.92116
H          2.96427       -1.29569        2.83631
H          1.46054       -1.83573        0.99140
H          2.50418       -3.20957        0.65162
H          2.95270       -0.25586        0.03387
H          3.14766       -1.64598       -1.00751
H          5.02867       -0.44686        1.08746
H          5.41831       -0.90719       -0.57327
H          4.67415       -2.67053        1.65897
H          6.22884       -3.61945       -0.73246
H          4.46854       -3.50493       -0.73909
H          5.63408       -7.27574        1.53023
H          6.02246       -7.93141       -0.09437
H          3.58952       -7.76901       -0.72056
H          3.21096       -7.15165        0.90006
H          4.08484       -9.29894        1.90947
H          4.41568       -9.91952        0.29198
H          1.96148       -9.72814       -0.27374
H          1.64054       -9.11909        1.34978
H          2.52451      -11.27513        2.32536
H          2.82187      -11.88327        0.69875
H          0.35990      -11.69128        0.17858
H          0.06481      -11.08719        1.80736
H          0.94750      -13.24532        2.76514
H          1.23989      -13.84737        1.13760
H         -1.53182      -13.10531        2.28407
H         -0.92297      -14.74929        2.01708
H         -1.24582      -13.68801        0.63298
H          6.77352       -3.17758        2.30463
H          6.64934       -1.40892        2.16003
H          8.08686       -3.31912        0.21277
H          8.66799       -2.44239       -1.79348
H          9.54061       -0.97911       -1.24570
H          8.91456        1.24365       -2.07556
H          7.67336        2.61073       -3.74086
H          5.90296        1.56286       -5.14321
H          5.39564       -0.86299       -4.89694
H          6.64769       -2.23192       -3.23998
H          9.13558       -1.04770        2.00405
H         10.10500       -2.06617        0.91280
H          9.33294       -2.79351        2.32720
