68

C          4.96813       -2.64166       -2.49822
C          4.46828       -1.53644       -1.59102
O          4.89560       -1.83178       -0.24097
C          4.45579       -0.87808        0.72131
C          4.90317       -1.35889        2.10597
C          6.38738       -1.52229        2.24198
N          7.14581       -1.83334        1.22185
C          8.56235       -2.11497        1.48003
C          8.87305       -1.60347        2.91011
S          7.21435       -1.36137        3.72980
C          9.67397       -0.29732        2.94017
C          9.98639        0.24695        4.34033
C         10.93806       -0.62925        5.17842
C         11.20539       -0.03015        6.54103
C         10.48203       -0.45407        7.66434
C         10.69657        0.12834        8.91620
C         11.64043        1.14777        9.05955
C         12.36980        1.57735        7.94719
C         12.15329        0.99190        6.69841
C          8.82320       -3.60919        1.26554
O          8.42534       -3.88996       -0.05558
C          8.65960       -5.25421       -0.45708
C          8.17854       -5.42887       -1.88734
C          8.44976       -6.83884       -2.42684
C          7.97782       -7.03439       -3.87223
C          8.27622       -8.43314       -4.42219
C          7.80670       -8.64175       -5.86667
C          8.12527      -10.03781       -6.40844
H          4.65568       -2.44335       -3.53188
H          4.55549       -3.61322       -2.19669
H          6.06477       -2.70654       -2.48181
H          3.36628       -1.47199       -1.60416
H          4.87048       -0.55197       -1.89112
H          3.35513       -0.79327        0.71303
H          4.87293        0.12382        0.50168
H          4.44851       -2.34352        2.31323
H          4.53554       -0.67158        2.87990
H          6.68408       -2.01895        0.31314
H          9.15673       -1.55231        0.74354
H          9.37721       -2.38776        3.49134
H          9.13255        0.46319        2.35405
H         10.61744       -0.49453        2.40098
H          9.05029        0.40967        4.90187
H         10.43119        1.24654        4.22691
H         11.88644       -0.75621        4.63035
H         10.51709       -1.63932        5.31395
H          9.74916       -1.25863        7.56184
H         10.13083       -0.21971        9.78133
H         11.81352        1.60171       10.03574
H         13.11444        2.36716        8.05347
H         12.73473        1.32847        5.83642
H          8.25053       -4.20955        2.00265
H          9.90117       -3.80934        1.42727
H          8.12228       -5.93517        0.22988
H          9.74056       -5.47459       -0.37402
H          8.68159       -4.68144       -2.52233
H          7.09904       -5.20922       -1.93126
H          7.95726       -7.58448       -1.77897
H          9.53110       -7.05142       -2.36726
H          8.45776       -6.27790       -4.51762
H          6.89247       -6.83982       -3.93222
H          7.80251       -9.19035       -3.77269
H          9.36242       -8.62298       -4.36259
H          8.27356       -7.87954       -6.51333
H          6.71969       -8.46203       -5.92443
H          9.20817      -10.23144       -6.40106
H          7.77446      -10.15772       -7.44230
H          7.64612      -10.82105       -5.80242
