66

C          8.34133       -5.95867      -15.24776
C          7.95981       -5.29023      -13.92478
C          8.38053       -3.81819      -13.84662
C          8.01186       -3.13878      -12.52393
C          8.40787       -1.65990      -12.46552
C          8.06126       -0.97850      -11.13767
C          8.42165        0.51112      -11.12001
C          8.13573        1.22146       -9.80410
O          8.88735        0.63362       -8.68375
C         10.15256        1.04682       -8.52772
O         10.72804        1.85390       -9.23632
C         10.79841        0.37451       -7.31806
C         12.32439        0.49372       -7.40130
C         13.10653       -0.07257       -6.16426
C         12.37091       -0.21343       -4.81145
C         13.28382       -0.58802       -3.63811
C         12.53075       -0.64640       -2.30241
C         13.43292       -1.01054       -1.12179
C         13.68851       -1.33106       -6.68702
N         13.54760       -1.45140       -7.96152
C         12.87618       -0.29789       -8.62522
C         13.85623        0.45879       -9.52728
C         14.36089       -0.34497      -10.72885
C         15.37851        0.44383      -11.56993
N         16.57387        0.77679      -10.77887
H          8.02157       -7.00916      -15.27521
H          9.42972       -5.93867      -15.40815
H          7.87339       -5.44809      -16.10246
H          8.41510       -5.84413      -13.08589
H          6.86932       -5.36263      -13.77580
H          7.91703       -3.26417      -14.68171
H          9.47120       -3.74205      -14.00623
H          8.48980       -3.68121      -11.68822
H          6.92457       -3.23015      -12.35686
H          7.91430       -1.11964      -13.29195
H          9.49264       -1.56284      -12.65306
H          8.58183       -1.49717      -10.31420
H          6.98342       -1.09659      -10.93241
H          7.84293        1.04282      -11.89412
H          9.48051        0.65627      -11.38753
H          7.08989        1.10187       -9.49461
H          8.38658        2.28827       -9.86038
H         10.45452       -0.66921       -7.25837
H         10.40756        0.87849       -6.42105
H         12.57111        1.55361       -7.53467
H         13.98644        0.57688       -5.97065
H         11.55278       -0.94484       -4.90343
H         11.89646        0.75701       -4.59966
H         14.10604        0.14470       -3.56357
H         13.76348       -1.56736       -3.81429
H         11.70879       -1.37720       -2.38133
H         12.05295        0.32978       -2.11735
H         13.89235       -2.00084       -1.25655
H         12.86425       -1.03613       -0.18349
H         14.24556       -0.28036       -0.99681
H         14.21193       -2.09633       -6.10893
H         13.93415       -2.23147       -8.49726
H         12.06401       -0.71689       -9.24073
H         14.71295        0.80514       -8.92577
H         13.31034        1.35098       -9.87103
H         13.51132       -0.64234      -11.36648
H         14.86469       -1.27111      -10.39877
H         14.88767        1.34266      -11.98140
H         15.66560       -0.17268      -12.43327
H         16.61305        1.77013      -10.55826
H         17.42603        0.56407      -11.29313
