39

Br         1.47727        0.79635        2.13459
C          3.37702        0.70614        1.56442
C          3.51142        0.61108        0.05721
C          3.11081        1.85772       -0.75395
C          1.61965        1.88562       -1.13822
C          1.08653        0.72042       -2.02086
C          2.04950        0.30723       -3.14173
O          1.38406       -0.65922       -3.92490
C          2.21114       -1.20539       -4.95465
C         -0.21839        1.30157       -2.59812
N          0.05514        2.74814       -2.57843
C          1.05697        3.11322       -1.81501
C          1.37791        4.52161       -1.62113
C          0.32609        5.45570       -1.47664
C          0.60849        6.80873       -1.31856
C          1.93554        7.25292       -1.32927
C          2.98174        6.33790       -1.48560
C          2.71321        4.97760       -1.61470
Br         5.44491        0.27455       -0.25720
H          3.76913       -0.18409        2.06209
H          3.85002        1.60681        1.96968
H          3.03019       -0.30106       -0.31427
H          3.72743        1.89842       -1.66053
H          3.35849        2.74728       -0.15749
H          1.05213        1.86418       -0.17995
H          0.86079       -0.16201       -1.40899
H          2.98286       -0.10986       -2.71818
H          2.34183        1.18452       -3.76113
H          1.60897       -1.95655       -5.47648
H          3.10798       -1.68772       -4.52941
H          2.52565       -0.42667       -5.67124
H         -1.09543        1.09385       -1.96528
H         -0.42941        0.96071       -3.61906
H         -0.51032        3.42443       -3.09175
H         -0.70961        5.11427       -1.42888
H         -0.20665        7.51853       -1.17781
H          2.15353        8.31475       -1.21060
H          4.01435        6.68557       -1.50795
H          3.53704        4.28266       -1.76294
