71

C          2.63554        2.56433        0.41822
C          2.77749        1.69614        1.67074
C          3.32204        0.29392        1.37463
C          3.46550       -0.55715        2.64223
N          4.02932       -1.89152        2.40714
C          3.29971       -3.02421        2.28575
O          3.79172       -4.16004        2.21543
C          1.76455       -2.91690        2.19334
C          1.05921       -3.23136        3.52274
N         -0.41615       -3.63824        3.19645
C         -0.55944       -5.14313        3.43303
C          0.87495       -5.64178        3.64527
C          1.57068       -4.43709        4.32820
C          1.32729       -4.26648        5.83200
C          2.28015       -3.22182        6.43056
O          2.96872       -2.53803        5.66627
C          2.36736       -3.07518        7.89989
C          3.32032       -2.18024        8.42669
C          3.44110       -2.01523        9.80187
C          2.61082       -2.73479       10.67002
C          1.66019       -3.62452       10.15936
C          1.54108       -3.79841        8.78241
C          0.88972       -7.02340        4.31109
C          2.21835       -7.80501        4.27074
C          3.27870       -7.37413        5.30781
N          4.30695       -6.51950        4.73651
C          4.98196       -5.65302        5.69264
C          5.87916       -4.63462        4.96336
O          5.87739       -3.34315        5.57536
O          1.80642       -9.15975        4.47465
C          5.49199       -1.99036        2.38628
H          2.23493        3.55604        0.66544
H          1.95748        2.10531       -0.31623
H          3.60626        2.71321       -0.07613
H          1.79832        1.61000        2.17346
H          3.44272        2.19741        2.39320
H          4.30145        0.37571        0.87647
H          2.66176       -0.22336        0.65707
H          2.50030       -0.65419        3.15843
H          4.12776       -0.05416        3.36355
H          1.50858       -3.67753        1.44020
H          1.41878       -1.94390        1.81707
H          1.00175       -2.32746        4.14008
H         -0.62687       -3.39715        2.22117
H         -1.07419       -3.11113        3.77918
H         -1.07562       -5.58817        2.57533
H         -1.18079       -5.27651        4.32802
H          1.35239       -5.74851        2.65630
H          2.64957       -4.50804        4.16329
H          1.48988       -5.22006        6.35276
H          0.28834       -3.97779        6.07652
H          3.96237       -1.62987        7.73971
H          4.18518       -1.32737       10.20387
H          2.70665       -2.60215       11.74829
H          1.01595       -4.18487       10.83689
H          0.79895       -4.50085        8.40170
H          0.16694       -7.65831        3.77500
H          0.53027       -6.97096        5.35149
H          2.66889       -7.69420        3.26251
H          3.75117       -8.28584        5.71570
H          2.77305       -6.90245        6.18123
H          3.98008       -5.98388        3.93139
H          5.56943       -6.27243        6.38971
H          4.26754       -5.08908        6.33561
H          5.55059       -4.57309        3.91080
H          6.92654       -4.96232        4.96140
H          4.95864       -3.01658        5.58303
H          2.60033       -9.71504        4.53415
H          5.89980       -1.97679        3.40880
H          5.90252       -1.14592        1.81878
H          5.77910       -2.92816        1.90217
