67

C          0.85783      -13.09599        0.65495
C          2.38449      -13.01498        0.58035
C          2.89196      -11.75269       -0.12586
C          4.41869      -11.67985       -0.22295
C          4.93466      -10.41798       -0.92225
C          6.46099      -10.37958       -1.03672
C          7.00288       -9.11629       -1.71471
C          8.53303       -9.12626       -1.80916
C          9.10262       -7.87049       -2.44028
O         10.54884       -7.99865       -2.42967
C         11.23334       -6.86962       -2.84019
N         12.68254       -7.11592       -2.48315
C         12.90828       -7.08533       -0.98819
C         12.97408       -5.61437       -0.52986
C         13.61819       -5.48611        0.84975
O         14.99622       -5.82327        0.66193
O         13.71457       -4.87238       -1.50640
C         13.24259       -8.37587       -3.12433
C         13.19292       -8.35819       -4.64952
C         13.80186       -9.63137       -5.26539
C         12.92751      -10.88765       -5.08032
N         13.44916      -12.04254       -5.78234
C         13.23105      -12.33128       -7.11582
C         13.97947      -13.44575       -7.44176
C         14.68268      -13.84398       -6.27007
C         14.34290      -12.96002       -5.26415
H          0.52824      -14.00767        1.17148
H          0.40891      -13.10300       -0.34939
H          0.43761      -12.23650        1.19802
H          2.77618      -13.90409        0.05774
H          2.80697      -13.05426        1.59879
H          2.51475      -10.86093        0.40524
H          2.45920      -11.70401       -1.14071
H          4.79179      -12.57034       -0.75889
H          4.85231      -11.73590        0.79123
H          4.58437       -9.52545       -0.37474
H          4.48985      -10.34879       -1.93029
H          6.80692      -11.26699       -1.59487
H          6.90414      -10.46585       -0.02895
H          6.67051       -8.22673       -1.15233
H          6.56699       -9.02216       -2.72385
H          8.86672       -9.99896       -2.39327
H          8.96576       -9.23662       -0.80126
H          8.82037       -6.96635       -1.86958
H          8.75813       -7.74242       -3.48171
H         10.91451       -5.95073       -2.31571
H         11.18845       -6.68986       -3.92890
H         13.22163       -6.28659       -2.81332
H         13.87253       -7.57451       -0.80182
H         12.10650       -7.65698       -0.50665
H         11.96606       -5.17344       -0.48912
H         13.12426       -6.16188        1.57014
H         13.50195       -4.44916        1.20308
H         15.50918       -5.54163        1.43470
H         14.64284       -4.87174       -1.19450
H         12.67145       -9.20775       -2.69640
H         14.28072       -8.44496       -2.77172
H         13.74052       -7.47858       -5.02469
H         12.15319       -8.26480       -5.00040
H         14.80785       -9.81874       -4.85783
H         13.93560       -9.46186       -6.34306
H         11.90887      -10.68762       -5.44997
H         12.83243      -11.15759       -4.01738
H         12.55088      -11.73004       -7.71115
H         14.00247      -13.93176       -8.41160
H         15.35091      -14.69288       -6.16919
H         14.64784      -12.91246       -4.22337
