81

C          1.03210       -0.58980       -0.36056
C          2.51082       -0.73989        0.00020
C          2.92644        0.09439        1.21611
C          4.40027       -0.07934        1.59049
C          4.84159        0.74010        2.80777
C          6.31375        0.51079        3.15852
C          6.82240        1.31018        4.36473
C          8.29687        1.00466        4.64026
C          8.90382        1.74245        5.83645
N         10.32614        1.38544        5.92059
C         11.10318        1.32237        7.01899
N         12.32271        0.75377        6.91205
C         13.24706        0.55304        8.04173
C         14.68776        0.54134        7.51913
C         15.68497       -0.00969        8.54478
C         17.13063        0.25945        8.12613
S         18.34595       -0.29731        9.34678
C         18.31412        1.03455       10.55480
S         17.34219        2.38955       10.39385
N         19.15707        0.82434       11.59089
C         20.04390       -0.34675       11.69351
C         19.42011       -1.51346       12.46213
C         19.24069        1.78669       12.70256
C         20.30931        2.85565       12.47821
C         12.97911        1.65334        9.06875
C         11.49539        1.72647        9.42917
N         10.69597        1.81584        8.18944
C         11.17528        2.91973       10.33946
C          9.69679        3.03515       10.73884
C          9.42291        4.15352       11.75418
O          9.45229        5.42945       11.09946
O          8.86863        3.27234        9.57703
H          0.76943       -1.19496       -1.23884
H          0.78226        0.45646       -0.59097
H          0.38531       -0.90958        0.46980
H          3.13366       -0.45362       -0.86414
H          2.73680       -1.80171        0.19678
H          2.29417       -0.17984        2.07879
H          2.72010        1.16033        1.01503
H          5.02941        0.19289        0.72462
H          4.60006       -1.14830        1.78347
H          4.21056        0.47974        3.67524
H          4.66882        1.81275        2.61355
H          6.93524        0.75595        2.27921
H          6.47323       -0.56501        3.34977
H          6.21717        1.06726        5.25439
H          6.68973        2.38969        4.18126
H          8.88374        1.25992        3.73896
H          8.42153       -0.07935        4.79948
H          8.40418        1.44311        6.77034
H          8.78740        2.83323        5.72349
H         10.75091        1.08673        5.04817
H         12.53573        0.25789        6.05269
H         13.02634       -0.42928        8.49954
H         14.96729        1.56698        7.22720
H         14.73194       -0.07154        6.60131
H         15.52690       -1.09023        8.68528
H         15.53355        0.47978        9.51741
H         17.29561        1.33606        7.97103
H         17.40409       -0.28387        7.20860
H         20.96269       -0.00522       12.19212
H         20.33923       -0.65763       10.68111
H         19.14868       -1.21806       13.48471
H         20.13898       -2.34084       12.53019
H         18.51946       -1.88222       11.95570
H         19.45348        1.20435       13.61147
H         18.25242        2.25146       12.81122
H         21.30602        2.41228       12.34656
H         20.35202        3.52656       13.34677
H         20.07074        3.45447       11.59040
H         13.30717        2.62154        8.65692
H         13.56934        1.46437        9.97412
H         11.20333        0.80024        9.95739
H          9.81854        2.34834        8.27943
H         11.50004        3.85133        9.84609
H         11.78134        2.80275       11.25168
H          9.35679        2.07968       11.17231
H         10.12849        4.10621       12.59788
H          8.40339        4.03677       12.14726
H         10.33533        5.81984       11.18430
H          8.81048        4.24817        9.50944
