35

C          1.81639        1.97401       -0.75812
O          2.20532        2.11649        0.61062
C          3.03472        1.06958        1.07114
C          4.44106        1.20386        0.54618
C          5.17749        2.35516        0.37056
C          4.88434        3.80837        0.58596
O          6.10990        4.49013        0.39630
C          5.98912        5.91181        0.52678
N          6.40259        1.96518       -0.12307
C          6.44796        0.63374       -0.25268
N          5.25770        0.14910        0.13278
C          4.94209       -1.28395        0.20038
C          5.27416       -1.87913        1.57073
C          4.76152       -3.32173        1.65492
O          3.34415       -3.26037        1.51557
O          6.69043       -1.80319        1.69867
H          1.16054        2.82163       -0.98305
H          1.26216        1.03316       -0.91584
H          2.68644        1.99979       -1.43868
H          2.61830        0.07663        0.81903
H          3.04131        1.14845        2.16989
H          4.47375        3.96721        1.60155
H          4.11268        4.15180       -0.13001
H          6.98827        6.32531        0.35533
H          5.64699        6.18784        1.53740
H          5.28982        6.31916       -0.22177
H          7.14399        2.63534       -0.32414
H          7.29291        0.04375       -0.58578
H          5.53496       -1.78977       -0.57343
H          3.88041       -1.42813       -0.02703
H          4.76801       -1.28372        2.35448
H          5.06088       -3.74372        2.63123
H          5.23366       -3.92991        0.86165
H          2.97180       -4.14603        1.64412
H          6.94647       -2.03797        2.60480
