50

C          4.47401        3.73808        5.97292
C          4.36263        2.22948        6.06238
O          4.89337        1.66462        4.84764
C          4.84953        0.25064        4.81699
C          5.37588       -0.22902        3.47255
N          6.82453        0.02056        3.30365
C          7.49966        1.17059        3.63981
N          8.77668        1.06942        3.36313
N          8.91484       -0.17784        2.83086
C          7.74334       -0.83255        2.76929
C          7.48693       -2.18736        2.22213
C          7.58772       -3.35149        3.27910
N          6.83362       -2.96397        4.48464
N          7.01202       -4.51579        2.62415
N          9.00014       -3.52870        3.58670
C         10.24441       -0.61565        2.38224
C         10.55079       -0.13539        0.95609
C         11.97516       -0.50656        0.48981
C         12.14005       -1.81027       -0.30629
S         11.72619       -3.29960        0.61836
O         12.50897       -3.35362        1.83640
O         10.28219       -3.42787        0.67590
O         12.22102       -4.46857       -0.37992
H          4.06108        4.19934        6.87961
H          3.91601        4.12230        5.10909
H          5.52249        4.05359        5.88126
H          3.31020        1.91177        6.17702
H          4.92962        1.83649        6.92681
H          3.81162       -0.12001        4.91914
H          5.44280       -0.19283        5.64130
H          4.84384        0.27773        2.65467
H          5.23219       -1.31233        3.40998
H          7.00708        2.02605        4.08955
H          8.20054       -2.40836        1.41883
H          6.48219       -2.20645        1.78087
H          6.55564       -3.80141        4.99775
H          7.42531       -2.41018        5.11002
H          5.99289       -4.47372        2.57142
H          7.28234       -5.37908        3.09519
H          9.12409       -4.16929        4.37210
H          9.49757       -3.91033        2.77673
H         10.27508       -1.70246        2.49958
H         10.95017       -0.17875        3.09969
H         10.44792        0.95884        0.93776
H          9.80103       -0.53829        0.25770
H         12.66806       -0.51515        1.34488
H         12.33762        0.28674       -0.17928
H         13.18783       -1.93776       -0.61079
H         11.50787       -1.83952       -1.20513
H         13.08912       -4.79175       -0.06718
