109

C          0.47755        0.26856        0.04994
C          2.00784        0.23032        0.06389
C          2.59257       -1.01108       -0.61962
C          4.12337       -1.06381       -0.59597
C          4.70860       -2.29192       -1.30082
C          6.23760       -2.36542       -1.24051
C          6.82580       -3.57069       -1.98122
C          8.35076       -3.67357       -1.87311
C          8.94130       -4.86088       -2.64078
C         10.45639       -5.01013       -2.46721
C         11.04949       -6.18198       -3.25679
C         12.54250       -6.40087       -2.99219
C         13.13786       -7.55828       -3.80101
C         14.59860       -7.84575       -3.43163
C         15.23394       -8.93750       -4.29508
O         14.46379      -10.16670       -4.33516
C         14.65846      -10.83242       -3.13423
N         16.18311      -10.56306       -2.83642
C         16.61354       -9.47478       -3.82788
C         17.62578       -8.51378       -3.21151
C         18.15124       -7.49673       -4.23243
C         14.35478      -12.30898       -3.23420
C         12.87872      -12.57507       -3.55253
O         12.68870      -13.96687       -3.42555
C         11.38298      -14.38405       -3.83638
C         11.28306      -15.88897       -3.62481
O         10.02983      -16.26177       -4.17725
C          9.66075      -17.58963       -4.13297
C          8.43223      -17.89171       -4.73646
C          7.96739      -19.19891       -4.74382
C          8.68980      -20.25277       -4.14896
C          9.91813      -19.92478       -3.56649
C         10.41143      -18.61196       -3.54976
C          8.12498      -21.68005       -4.16867
C          6.72151      -21.76544       -3.47991
C          6.43060      -21.37938       -1.99731
C          7.23337      -22.21239       -0.97900
C          6.65684      -19.88241       -1.70478
C          4.93135      -21.68528       -1.78244
C          7.89977      -22.08700       -5.64931
C          9.11199      -22.70931       -3.58508
H          0.09187        1.17044        0.54506
H          0.05119       -0.60304        0.56881
H          0.08694        0.26226       -0.97871
H          2.36787        0.27324        1.10589
H          2.40400        1.13463       -0.42849
H          2.24117       -1.04905       -1.66609
H          2.18889       -1.91769       -0.13465
H          4.47185       -1.04387        0.45188
H          4.52769       -0.14892       -1.06413
H          4.38385       -2.29464       -2.35639
H          4.28277       -3.20749       -0.85351
H          6.55854       -2.39426       -0.18413
H          6.66539       -1.43732       -1.65889
H          6.53664       -3.52083       -3.04582
H          6.37115       -4.49782       -1.58949
H          8.63475       -3.74971       -0.80845
H          8.80852       -2.73810       -2.24010
H          8.70239       -4.75784       -3.71389
H          8.44633       -5.79120       -2.31029
H         10.68640       -5.13952       -1.39462
H         10.95663       -4.07425       -2.77149
H         10.88695       -6.01729       -4.33603
H         10.49933       -7.10621       -3.00636
H         12.69368       -6.59119       -1.91440
H         13.09851       -5.47383       -3.21544
H         13.07147       -7.33392       -4.87915
H         12.53336       -8.46675       -3.64689
H         14.66347       -8.08856       -2.35558
H         15.19906       -6.93076       -3.55914
H         15.29412       -8.60596       -5.33997
H         14.13036      -10.35132       -2.29061
H         16.73052      -11.42183       -2.96482
H         16.31384      -10.24994       -1.86674
H         17.06492      -10.01829       -4.66976
H         18.47413       -9.09536       -2.81645
H         17.17126       -7.99118       -2.35372
H         18.63654       -7.99692       -5.08185
H         18.89621       -6.84377       -3.76280
H         17.35266       -6.85526       -4.62774
H         14.58763      -12.79480       -2.27309
H         14.98306      -12.76737       -4.01477
H         12.63832      -12.22768       -4.57481
H         12.22417      -12.01784       -2.84964
H         11.22125      -14.14795       -4.90390
H         10.60623      -13.86308       -3.24716
H         11.33831      -16.13375       -2.54914
H         12.11687      -16.39830       -4.14097
H          7.85745      -17.08632       -5.19456
H          7.00399      -19.39782       -5.21507
H         10.52395      -20.69928       -3.09787
H         11.37412      -18.41198       -3.08014
H          6.39026      -22.81086       -3.60749
H          6.02627      -21.16856       -4.09443
H          8.29223      -21.92417       -0.95322
H          7.17678      -23.28910       -1.19614
H          6.83197      -22.05621        0.03332
H          7.71533      -19.60065       -1.76717
H          6.30593      -19.64463       -0.68908
H          6.10085      -19.24499       -2.40742
H          4.71407      -22.75278       -1.93614
H          4.30246      -21.11132       -2.47937
H          4.62349      -21.42358       -0.75953
H          7.16616      -21.43998       -6.14855
H          7.52838      -23.12040       -5.71023
H          8.84153      -22.02707       -6.21265
H          9.42262      -22.48685       -2.55854
H         10.01816      -22.77551       -4.20471
H          8.64603      -23.70424       -3.57606
