73

C         14.61120        0.77825        6.36588
O         13.96593       -0.29241        5.68931
C         14.72304       -0.73391        4.56068
C         13.94556       -1.79525        3.79844
O         12.61555       -1.41846        3.42786
C         12.50265       -0.26950        2.59896
C         11.02460       -0.02503        2.32467
O         10.21898        0.05594        3.50575
C         10.46242        1.16717        4.34871
C          9.62193        0.97075        5.62246
N         10.40236        0.56537        6.82574
C         10.60586        1.52452        7.77574
C         11.31039        1.27539        8.92820
C         11.86144       -0.00183        9.14828
C         11.65931       -0.94940        8.14633
C         10.91884       -0.69601        6.99186
C         10.71036       -1.72304        5.92561
C         10.87284       -3.20723        6.29261
C          9.88119       -3.83345        7.27879
C          8.36188       -3.53793        7.04954
Br         7.76711       -3.95198        5.23187
F          7.60362       -4.20690        7.93112
F          8.14831       -2.20305        7.27523
Br        10.16470       -5.77679        7.29647
F         10.12899       -3.37637        8.56784
C         12.58323       -0.31741       10.43403
C         13.44730       -1.58333       10.44229
C         14.71216       -1.46714        9.57508
C         15.40370       -2.80347        9.27149
C         14.63372       -3.66135        8.25707
C         15.38331       -4.90666        7.78963
O         16.69004       -4.58788        7.23992
C         16.71719       -4.13826        5.95710
O         15.72152       -3.99987        5.26332
C         18.11256       -3.84499        5.54781
C         18.39665       -3.39262        4.32160
H         13.95515        1.08801        7.18900
H         14.77441        1.63955        5.69247
H         15.58805        0.47177        6.78141
H         15.68191       -1.18435        4.87970
H         14.96613        0.13420        3.91762
H         13.83249       -2.69471        4.41606
H         14.53407       -2.07922        2.90604
H         13.01663       -0.42103        1.63007
H         12.96533        0.61307        3.07718
H         10.59948       -0.86976        1.76655
H         10.91668        0.88828        1.71000
H         10.15308        2.10703        3.85312
H         11.52993        1.26263        4.61952
H          8.84633        0.21873        5.43038
H          9.11643        1.90166        5.89797
H         10.16306        2.49577        7.56568
H         11.42368        2.07522        9.65954
H         12.07109       -1.94555        8.26112
H         11.44869       -1.52176        5.12383
H          9.74571       -1.57013        5.42873
H         11.87566       -3.42249        6.68680
H         10.79954       -3.76698        5.35244
H         11.80497       -0.39359       11.21528
H         13.18533        0.56163       10.71949
H         12.83577       -2.44818       10.13841
H         13.73828       -1.79327       11.48208
H         15.41912       -0.78939       10.07947
H         14.46674       -0.98420        8.61519
H         15.56389       -3.37057       10.20415
H         16.40561       -2.59612        8.86723
H         14.38169       -3.04661        7.37709
H         13.68054       -4.01739        8.68497
H         14.80243       -5.45027        7.03206
H         15.60830       -5.57754        8.62878
H         18.88803       -4.02368        6.29361
H         17.60222       -3.23567        3.58992
H         19.42042       -3.18124        4.01555
