56

C          8.56389        4.69540       -4.75236
C          8.86914        3.64413       -3.68283
C          8.81893        4.19626       -2.25325
C          9.19115        3.15723       -1.19066
C          9.13467        3.69549        0.24399
C          9.62596        2.66811        1.27266
C          9.54760        3.20029        2.70564
S         10.36304        1.96224        3.78889
C         10.11892        2.68053        5.33645
N          9.46433        3.74598        5.71488
N          9.62308        3.82850        7.10348
C         10.35515        2.80398        7.44419
O         10.72341        2.01764        6.41295
N         10.76640        2.45222        8.72368
C         10.33759        3.20771        9.77522
N         10.60578        3.03792       11.06995
N         10.01052        4.00087       11.85803
C          9.34077        4.75451       10.98839
N          9.54008        4.29744        9.68507
N          8.54032        5.79288       11.29758
C          8.50737        6.23717       12.69224
C          8.09162        6.71511       10.25712
C         11.65963        1.32958        8.97008
C         13.03830        1.51843        8.84438
C         13.88972        0.44075        9.09684
C         13.36079       -0.79722        9.47538
C         11.97877       -0.96908        9.59991
C         11.11479        0.09848        9.34395
H          8.60201        4.26358       -5.76157
H          9.28791        5.52299       -4.71797
H          7.56168        5.12793       -4.61481
H          9.86699        3.21115       -3.86747
H          8.15650        2.80692       -3.77265
H          7.80808        4.59045       -2.04825
H          9.50233        5.05995       -2.17193
H         10.20844        2.78018       -1.39575
H          8.52181        2.28388       -1.27878
H          8.10263        4.00161        0.48568
H          9.75165        4.60732        0.31902
H         10.66808        2.39508        1.03602
H          9.03307        1.74282        1.19045
H          8.51224        3.33065        3.04577
H         10.08355        4.15174        2.82170
H         11.18850        2.32129       11.49063
H          9.22441        4.61214        8.74410
H          8.60091        5.36911       13.35306
H          7.54548        6.72832       12.87879
H          9.32415        6.94212       12.91586
H          7.70347        6.16822        9.38740
H          8.89095        7.40074        9.92968
H          7.26563        7.31060       10.66042
H         13.43337        2.49020        8.54635
H         14.96724        0.57038        8.99719
H         14.03007       -1.63491        9.67210
H         11.56966       -1.93686        9.88937
H         10.03355       -0.02099        9.42211
