79

C          1.55173       -0.24697       -0.86462
C          2.99794        0.07933       -0.47842
C          3.08854        0.74326        0.88442
O          4.48076        0.99187        1.18409
C          4.70689        1.60761        2.44372
C          6.22374        1.84293        2.54335
N          6.80490        0.47983        2.13077
C          8.28934        0.37387        1.80615
C          9.08358        0.37036        3.11346
C         10.60079        0.22697        2.92111
C         11.26653       -0.04745        4.27188
S         13.07518        0.01164        4.12912
C         13.53028        0.31696        5.84605
S         12.43911        0.54585        7.07148
N         14.88827        0.31157        6.01321
C         15.81151        0.34198        4.90410
C         16.63491       -0.76366        4.65980
C         17.56213       -0.71432        3.61866
C         17.67077        0.43334        2.82666
C         16.85204        1.53753        3.07946
C         15.92455        1.49854        4.12168
C         15.47989        0.27469        7.33147
C         16.27357        1.34255        7.75722
C         16.88514        1.28591        9.01160
C         16.70738        0.16859        9.83110
C         15.91951       -0.90066        9.39233
C         15.30637       -0.85299        8.14107
C          8.59048        1.51284        0.83216
N          8.21836        2.75506        1.47412
C          6.77622        2.95569        1.62292
C          6.59046        4.39563        2.18732
C          6.94050        5.34622        1.03310
O          6.20728        5.56259        0.09084
O          8.17317        5.88016        1.19364
C          8.61274        6.82267        0.15751
C         10.09346        7.06127        0.35805
C          5.21202        4.79598        2.73065
H          1.51448       -0.73009       -1.84876
H          0.93318        0.66003       -0.91771
H          1.08422       -0.93100       -0.14180
H          3.45137        0.74592       -1.22805
H          3.60023       -0.84341       -0.46455
H          2.65921        0.09852        1.67377
H          2.54638        1.70569        0.89691
H          4.36409        0.95261        3.27093
H          4.16261        2.55800        2.52657
H          6.53041        2.02100        3.58277
H          6.21305        0.20799        1.31792
H          6.58424       -0.19126        2.87882
H          8.39734       -0.59556        1.29429
H          8.72095       -0.46928        3.73322
H          8.88560        1.29709        3.67111
H         11.01165        1.15327        2.49158
H         10.82173       -0.58358        2.20656
H         10.96936       -1.03101        4.66510
H         10.99153        0.70126        5.03191
H         16.54533       -1.64894        5.28961
H         18.20490       -1.57388        3.42670
H         18.40095        0.46956        2.01764
H         16.94593        2.43933        2.47346
H         15.29018        2.35780        4.34061
H         16.40788        2.21034        7.11108
H         17.50080        2.12025        9.34901
H         17.18557        0.12817       10.81012
H         15.78436       -1.77794       10.02574
H         14.68523       -1.67736        7.79093
H          8.06102        1.32498       -0.12774
H          9.66482        1.51648        0.61042
H          8.66965        3.56937        1.06139
H          6.23404        2.88706        0.65553
H          7.34486        4.51986        2.97847
H          8.02150        7.74217        0.27476
H          8.37697        6.39191       -0.82526
H         10.30255        7.46182        1.35852
H         10.44887        7.79108       -0.38180
H         10.67079        6.13624        0.22393
H          4.42524        4.67964        1.97412
H          5.23253        5.85598        3.01476
H          4.94487        4.23405        3.63492
