61

C          1.41943        0.19449       -1.58516
C          2.87151       -0.16434       -1.36469
O          3.67390        1.02973       -1.69065
C          5.00000        0.91844       -1.49694
O          5.57714       -0.06502       -1.09370
C          5.72949        2.19533       -1.97368
C          4.96908        3.47721       -1.71733
C          4.55773        3.87724       -0.42675
C          3.95202        5.12937       -0.26812
C          3.72668        5.96326       -1.35946
C          4.11666        5.52875       -2.60795
N          4.72967        4.32679       -2.77366
C          5.07271        3.96171       -4.17970
C          4.01002        3.05497       -4.80759
C          4.41769        2.61341       -6.22899
C          3.42582        1.72412       -6.81430
C          2.58339        0.98331       -7.26489
C          4.71819        2.99657        0.78914
C          3.35548        2.56274        1.36939
P          3.61111        1.35255        2.70930
O          4.57256        1.78515        3.75066
O          2.09124        1.10915        3.13472
C          1.77515        0.22729        4.26478
C          1.12889       -1.05000        3.76681
O          4.04607        0.01389        1.91864
C          5.27961       -0.70502        2.25453
C          4.97486       -1.93028        3.09418
C          7.17967        2.26583       -1.46073
H          0.79498       -0.68294       -1.37023
H          1.23136        0.49688       -2.62385
H          1.09626        1.00428       -0.91733
H          3.20767       -0.97871       -2.02098
H          3.09211       -0.43780       -0.32420
H          5.77966        2.02721       -3.05757
H          3.65164        5.45206        0.73010
H          3.25658        6.93907       -1.25201
H          3.96700        6.11508       -3.51169
H          6.07090        3.50747       -4.18998
H          5.15648        4.90749       -4.72929
H          3.05015        3.59107       -4.84753
H          3.84208        2.16622       -4.18274
H          5.39456        2.10062       -6.19751
H          4.55323        3.49480       -6.87846
H          1.84850        0.33172       -7.69030
H          5.27783        3.54622        1.56168
H          5.31716        2.10786        0.56323
H          2.71673        2.11674        0.59612
H          2.81092        3.41300        1.80357
H          1.09512        0.80786        4.90156
H          2.69256        0.03533        4.84068
H          0.21798       -0.83009        3.19404
H          0.84806       -1.67807        4.62411
H          1.81523       -1.62345        3.13111
H          5.95064       -0.01413        2.78329
H          5.71832       -0.97214        1.28463
H          4.54053       -1.65150        4.06360
H          5.90542       -2.48041        3.29184
H          4.28391       -2.60822        2.57579
H          7.23120        2.44474       -0.38033
H          7.72684        3.07196       -1.96654
H          7.67877        1.31233       -1.66847
