60

C          2.21821       -0.39186        1.87033
C          3.58290       -0.25159        1.19154
C          3.66788       -0.98681       -0.15137
C          5.02180       -0.82248       -0.85153
C          5.08556       -1.53591       -2.20694
C          6.41227       -1.28271       -2.93226
N          6.46174       -1.85933       -4.29387
C          6.83761       -3.27821       -4.41934
C          5.63624       -4.07770       -4.91913
C          5.23651       -3.53802       -6.28496
N          5.34807       -2.06855       -6.35006
C          5.76152       -1.31275       -5.31064
N          5.45456        0.00945       -5.30721
C          6.39427        1.10756       -5.11516
C          5.81236        2.30584       -5.86561
O          4.71059        2.28655       -6.38266
O          6.65530        3.33711       -5.85013
C          6.19306        4.54018       -6.52749
C          5.07807       -1.45343       -7.67017
C          6.21390       -0.58514       -8.17707
C          5.93084        0.60954       -8.84410
C          6.97810        1.40891       -9.31254
C          8.30246        1.02373       -9.11278
C          8.61060       -0.17998       -8.45413
C          7.55052       -0.97220       -7.99717
C         10.04211       -0.60798       -8.26027
H          2.19200        0.14346        2.82862
H          1.97742       -1.44588        2.07302
H          1.41389        0.01610        1.24049
H          4.37180       -0.63028        1.86272
H          3.80780        0.81682        1.03341
H          2.86820       -0.62000       -0.81872
H          3.46293       -2.06024        0.00528
H          5.82607       -1.19703       -0.19533
H          5.22513        0.25299       -0.99855
H          4.25934       -1.18352       -2.84608
H          4.93743       -2.61915       -2.06503
H          7.25657       -1.72047       -2.38257
H          6.61207       -0.20659       -2.98537
H          7.17257       -3.61950       -3.43408
H          7.69041       -3.37027       -5.11110
H          4.81046       -3.98135       -4.19994
H          5.87679       -5.14553       -5.00413
H          4.20244       -3.82061       -6.53629
H          5.88985       -3.95159       -7.06990
H          4.70206        0.30882       -5.93426
H          7.39136        0.86818       -5.51348
H          6.50913        1.40052       -4.05875
H          7.00337        5.26316       -6.40612
H          5.26989        4.90285       -6.06084
H          6.01460        4.32444       -7.58761
H          4.13420       -0.88481       -7.65405
H          4.90688       -2.29716       -8.35481
H          4.89687        0.92986       -8.97988
H          6.75466        2.34135       -9.83272
H          9.11305        1.65856       -9.47553
H          7.78134       -1.91239       -7.48916
H         10.53708       -0.77739       -9.22759
H         10.11298       -1.53848       -7.68262
H         10.62280        0.16441       -7.73573
