96

C          0.69937        0.19301       -0.42543
C          2.22097        0.35859       -0.42048
C          2.75253        1.06746        0.83014
C          4.27510        1.23613        0.84193
C          4.80723        1.94854        2.08944
C          6.32981        2.11862        2.09528
C          6.86753        2.82852        3.34198
C          8.38915        3.00400        3.33280
C          8.94104        3.70457        4.57889
C         10.45977        3.89701        4.53357
C         11.03764        4.59650        5.76970
C         12.54498        4.83662        5.64248
C         13.15870        5.54903        6.84843
N         14.56058        5.86597        6.55012
C         15.48547        6.31290        7.41301
N         15.13831        6.55136        8.70451
C         16.20881        6.96264        9.60197
O         17.05569        7.87519        8.92928
C         17.73892        7.24992        7.86316
N         16.76610        6.46155        7.03079
C         17.25474        5.79543        5.80478
C         16.94585        6.53908        4.49138
C         17.07925        5.61537        3.27795
S         16.44408        6.36962        1.75930
C         17.86497        7.32464        1.20272
S         19.34554        7.30984        1.95231
N         17.57199        8.01896        0.06409
C         16.21759        8.17927       -0.41479
C         15.81455        7.53224       -1.58802
C         14.51754        7.72412       -2.06650
C         13.63095        8.56007       -1.38093
C         14.04253        9.21226       -0.21437
C         15.33767        9.02793        0.26985
C         18.60634        8.61658       -0.74887
C         18.60749        9.99939       -0.94742
C         19.57027       10.57183       -1.78122
C         20.52027        9.76650       -2.41442
C         20.50662        8.38222       -2.21541
C         19.54857        7.80166       -1.38504
C         18.45680        8.36468        7.07348
C         19.90737        8.05439        6.77828
O         20.16800        7.00393        5.82605
C         20.52792        8.35693        5.47882
H          0.35155       -0.31528       -1.33526
H          0.19078        1.16739       -0.37475
H          0.35923       -0.40058        0.43631
H          2.53351        0.92222       -1.31610
H          2.70003       -0.63159       -0.50656
H          2.44011        0.50478        1.72784
H          2.27444        2.05949        0.91668
H          4.58636        1.79612       -0.05779
H          4.75249        0.24377        0.75770
H          4.49926        1.38762        2.98944
H          4.32916        2.94033        2.17520
H          6.63654        2.68091        1.19548
H          6.80760        1.12690        2.00678
H          6.56958        2.26253        4.24205
H          6.38633        3.81808        3.43535
H          8.68306        3.57615        2.43497
H          8.86956        2.01517        3.22905
H          8.66940        3.12390        5.47761
H          8.45163        4.68763        4.69363
H         10.72276        4.48069        3.63370
H         10.94956        2.91547        4.40983
H         10.82960        3.99288        6.66931
H         10.52397        5.56175        5.91958
H         12.73273        5.44649        4.74026
H         13.06724        3.87777        5.48972
H         13.11846        4.91125        7.74509
H         12.59589        6.47566        7.06266
H         14.81059        5.89067        5.56620
H         14.20097        6.90074        8.88042
H         16.77498        6.07519        9.93509
H         15.77906        7.47823       10.46665
H         18.47109        6.51709        8.25596
H         16.81554        4.78494        5.79181
H         18.34171        5.68022        5.90766
H         17.64414        7.37596        4.35945
H         15.93644        6.98321        4.50262
H         16.48023        4.69752        3.39277
H         18.13169        5.34149        3.10527
H         16.51747        6.88827       -2.11673
H         14.19877        7.22027       -2.97923
H         12.62027        8.71030       -1.76139
H         13.35670        9.87662        0.31253
H         15.67726        9.53547        1.17313
H         17.85910       10.62010       -0.45441
H         19.57621       11.65106       -1.93589
H         21.26922       10.21659       -3.06617
H         21.24304        7.74937       -2.71139
H         19.53062        6.72427       -1.22153
H         18.41239        9.26337        7.70591
H         17.90640        8.59580        6.15344
H         20.56216        8.01725        7.65808
H         19.92834        8.80153        4.67891
H         21.60342        8.54599        5.42855
