78

C          2.40253       -0.76095       -1.31741
C          0.96439       -0.46352       -0.98393
C         -0.05250       -0.66237       -1.93197
C         -1.38800       -0.40537       -1.62140
C         -1.75062        0.05900       -0.34969
C         -0.74261        0.25287        0.60497
C          0.59238       -0.00286        0.28822
C         -3.18648        0.39884       -0.02681
C         -3.54917        1.85299       -0.21095
C         -2.64523        2.76110       -0.80624
N         -2.86583        4.06198       -0.96711
N         -4.03534        4.52412       -0.53967
C         -4.98687        3.75370        0.02077
C         -4.78099        2.38979        0.20138
C         -5.84781        1.57961        0.89613
O         -5.40114        1.45483        2.23991
C         -6.02196        0.51709        3.06017
C         -7.15953       -0.18676        2.66410
C         -7.76172       -1.12473        3.52007
C         -8.98948       -1.87901        3.07865
C         -7.18739       -1.32509        4.77685
C         -6.05169       -0.60768        5.16129
C         -5.43270        0.33025        4.32970
C         -4.21423        1.09231        4.83429
C         -2.94894        0.89636        3.97710
C         -4.51549        2.58564        5.06807
C         -4.22571        5.99141       -0.60263
C         -3.97034        6.61009        0.78526
C         -4.77558        7.90611        0.99833
S         -5.38014        8.06938        2.69722
C         -6.73457        6.89529        2.72159
S         -7.33937        6.16338        1.33166
N         -7.25300        6.70082        3.95179
C         -6.65544        7.16966        5.21000
C         -6.20589        5.94874        6.02448
O         -7.27643        5.04058        6.25524
C         -7.87555        4.60517        5.03432
C         -8.37553        5.78560        4.20168
H          2.59379       -1.84457       -1.28670
H          3.08875       -0.28468       -0.60649
H          2.66009       -0.41686       -2.32814
H          0.20561       -1.02438       -2.92897
H         -2.15735       -0.56971       -2.37953
H         -1.00039        0.60526        1.60600
H          1.36190        0.15738        1.04602
H         -3.42712        0.12266        1.01223
H         -3.87149       -0.20022       -0.65310
H         -1.67278        2.42092       -1.16356
H         -5.88806        4.28056        0.35793
H         -5.95491        0.59215        0.41490
H         -6.82195        2.09624        0.84008
H         -7.60971       -0.01094        1.68621
H         -9.80098       -1.19321        2.79453
H         -9.36453       -2.53069        3.87688
H         -8.77701       -2.51061        2.20296
H         -7.62926       -2.04655        5.46557
H         -5.62251       -0.77987        6.15076
H         -3.99511        0.65436        5.82147
H         -3.02833        1.42980        3.02035
H         -2.77158       -0.16797        3.76804
H         -2.06790        1.28724        4.50560
H         -4.72664        3.10229        4.12059
H         -3.65573        3.08250        5.54034
H         -5.38252        2.71046        5.73004
H         -5.26712        6.16484       -0.90313
H         -3.54467        6.35848       -1.37716
H         -2.89559        6.78200        0.93464
H         -4.28299        5.87935        1.54300
H         -5.65213        7.95373        0.33700
H         -4.16890        8.80865        0.84335
H         -7.41473        7.74482        5.76211
H         -5.80027        7.82608        5.01495
H         -5.84837        6.26575        7.01324
H         -5.37685        5.44397        5.49113
H         -8.71476        3.95645        5.31775
H         -7.15468        4.01317        4.43896
H         -9.14799        6.34297        4.75436
H         -8.78066        5.45466        3.23941
