75

C         -1.33666        6.92149       -6.67647
C          0.12873        7.20087       -6.33338
C          1.08513        6.10692       -6.82137
C          2.55531        6.37861       -6.48684
C          3.50956        5.29505       -6.99933
C          4.98004        5.55659       -6.65687
C          5.93321        4.50004       -7.22572
C          7.40157        4.73048       -6.85158
C          8.35503        3.73250       -7.51878
C          9.82085        3.91931       -7.10791
C         10.74954        2.97284       -7.88081
N         12.16590        3.04148       -7.49041
C         13.04845        3.97804       -7.88280
N         12.63994        4.91962       -8.76297
N         14.32287        3.96387       -7.45105
C         15.30218        4.95822       -7.93719
C         15.27145        6.32431       -7.21855
C         15.47939        6.19157       -5.70518
C         16.32040        7.24146       -7.86180
C         14.83383        2.86573       -6.60910
C         15.28337        1.63964       -7.42114
C         15.90068        0.52686       -6.56352
C         14.89432       -0.19427       -5.64705
N         15.47813       -1.32294       -4.95146
C         15.57580       -2.60613       -5.45462
C         16.31633       -3.36027       -4.56512
C         16.69096       -2.50495       -3.49085
C         16.16717       -1.25453       -3.75584
H         -1.99617        7.71838       -6.30654
H         -1.67796        5.97519       -6.23089
H         -1.48539        6.84575       -7.76401
H          0.23670        7.31629       -5.24152
H          0.43169        8.16783       -6.76985
H          0.97503        5.98982       -7.91435
H          0.78388        5.13837       -6.38384
H          2.66851        6.47854       -5.39296
H          2.85166        7.35444       -6.91049
H          3.40139        5.20505       -8.09486
H          3.20810        4.31634       -6.58612
H          5.09706        5.60584       -5.56005
H          5.27256        6.55142       -7.03672
H          5.83599        4.48022       -8.32534
H          5.62278        3.49963       -6.87780
H          7.51508        4.67286       -5.75532
H          7.69505        5.75702       -7.13375
H          8.26424        3.82506       -8.61556
H          8.03968        2.70310       -7.27615
H          9.94001        3.73387       -6.02843
H         10.12077        4.96952       -7.26871
H         10.67074        3.13255       -8.96920
H         10.44325        1.93086       -7.71665
H         12.50226        2.33236       -6.85197
H         11.65347        5.01975       -8.96186
H         13.22545        5.71948       -8.95848
H         15.18392        5.08262       -9.02594
H         16.29291        4.50106       -7.80351
H         14.27752        6.78294       -7.37641
H         16.46233        5.75214       -5.47521
H         14.70451        5.57239       -5.23188
H         15.44345        7.17841       -5.22604
H         17.33657        6.84496       -7.71592
H         16.28890        8.24095       -7.40986
H         16.15893        7.35970       -8.94307
H         14.08304        2.61512       -5.84323
H         15.68190        3.27454       -6.04523
H         16.02387        1.97413       -8.16366
H         14.43422        1.24005       -8.00099
H         16.72553        0.92670       -5.95206
H         16.35122       -0.22185       -7.23080
H         14.04288       -0.56251       -6.24318
H         14.48434        0.48982       -4.88659
H         15.09988       -2.87356       -6.39303
H         16.54828       -4.41523       -4.66795
H         17.26627       -2.77779       -2.61221
H         16.21494       -0.32725       -3.19311
