70

C          5.71268        1.72706        4.87724
C          6.33512        1.73682        3.47866
C          6.63715        0.32553        2.95273
C          7.25680        0.37058        1.56429
O          7.58041       -0.98119        1.07368
C          6.60868       -1.63351        0.43570
O          5.49190       -1.21081        0.19219
C          7.03399       -3.06630        0.07311
C          8.41440       -3.23115       -0.60351
C          8.22324       -3.55566       -2.08752
N          7.30401       -4.69585       -2.29295
C          6.09780       -4.54616       -1.68243
N          4.99833       -5.23417       -2.05542
C          4.79307       -5.91396       -3.31966
C          4.76687       -7.44738       -3.10041
O          4.76605       -7.88095       -1.94567
N          4.71058       -8.24471       -4.19945
C          4.71350       -7.73900       -5.57719
C          6.09172       -7.74463       -6.24475
C          4.64071       -9.70244       -3.97942
C          5.97791      -10.33979       -3.59639
N          5.95551       -3.58976       -0.76277
C          7.86195       -6.03870       -2.45455
C          7.90461       -6.78724       -1.09179
O          7.39572       -6.25161       -0.10184
N          8.48605       -8.00889       -1.07037
C          9.12952       -8.63746       -2.23054
C         10.63167       -8.35654       -2.32151
C          8.49150       -8.75457        0.20291
C          7.29680       -9.69970        0.33627
H          5.50427        2.74786        5.22343
H          6.38257        1.25695        5.61179
H          4.76330        1.17217        4.88878
H          7.26456        2.32994        3.49259
H          5.65625        2.24852        2.77683
H          5.70481       -0.26023        2.91747
H          7.32301       -0.19484        3.64006
H          8.22711        0.88241        1.56531
H          6.58806        0.84629        0.83500
H          7.04745       -3.63201        1.02116
H          8.95755       -4.04541       -0.11084
H          9.00694       -2.31474       -0.48714
H          9.17785       -3.80409       -2.56523
H          7.80041       -2.69176       -2.62192
H          4.35862       -5.48910       -1.30672
H          5.56177       -5.58574       -4.02921
H          3.82356       -5.59048       -3.73344
H          4.28745       -6.72736       -5.59000
H          4.01445       -8.36271       -6.15297
H          6.81093       -7.12699       -5.68723
H          6.02002       -7.34148       -7.26392
H          6.50007       -8.76085       -6.31444
H          4.24942      -10.14433       -4.90559
H          3.90625       -9.88133       -3.18199
H          6.74282      -10.18080       -4.36817
H          5.84884      -11.42275       -3.46702
H          6.33645       -9.92692       -2.64615
H          5.04838       -3.14592       -0.61233
H          8.86032       -5.92746       -2.89463
H          7.27099       -6.62787       -3.16952
H          8.61660       -8.32340       -3.14985
H          8.95107       -9.71955       -2.15256
H         10.83668       -7.28312       -2.43910
H         11.06616       -8.88177       -3.18258
H         11.15626       -8.69930       -1.41980
H          8.48448       -8.01391        1.01116
H          9.44127       -9.30585        0.25884
H          6.35258       -9.14552        0.26068
H          7.32909      -10.20358        1.31159
H          7.30372      -10.47897       -0.43882
