95

C         13.25486        4.41982       -7.44719
C         13.24434        3.77360       -6.05965
C         12.95536        2.26841       -6.09286
C         12.96276        1.60733       -4.71085
C         12.68027        0.10192       -4.75065
C         12.72721       -0.57248       -3.37525
C         12.45225       -2.07849       -3.42900
C         12.57859       -2.78021       -2.07164
C         12.32469       -4.28991       -2.16418
C         12.54061       -5.01383       -0.84580
O         12.33106       -6.42525       -1.07100
C         12.75706       -7.25008       -0.01513
N         12.91705       -8.60346       -0.51838
C         11.86585       -9.44649       -0.55603
N         11.97105      -10.73776       -0.89639
C         10.67004      -11.41086       -0.79792
C          9.78097      -10.35006       -0.09635
N         10.59160       -9.13269       -0.27006
C          9.52889      -10.61777        1.38873
O          8.95361       -9.44027        1.90943
C          8.68654       -9.48849        3.32148
C          8.20000       -8.11795        3.76027
C          7.85984       -8.04902        5.25325
C          7.42547       -6.64789        5.69774
C          7.08501       -6.55293        7.18801
C          6.67641       -5.14426        7.63104
C          6.33736       -5.04143        9.12213
C          5.93664       -3.62912        9.55536
C         14.13748       -8.89689       -1.30465
C         15.14350       -9.82097       -0.62376
O         14.65063      -11.15982       -0.62565
Si        15.58889      -12.54582       -0.28062
C         17.02432      -12.62260       -1.48152
C         16.18345      -12.45237        1.49368
C         14.35071      -13.92527       -0.54843
H         13.46731        5.49624       -7.38950
H         12.28417        4.30061       -7.95123
H         14.01984        3.96512       -8.09426
H         12.49273        4.27323       -5.42523
H         14.21609        3.94456       -5.56612
H         13.69941        1.77014       -6.73948
H         11.97663        2.09710       -6.57521
H         12.21683        2.10238       -4.06432
H         13.94136        1.78151       -4.22933
H         13.41115       -0.38762       -5.41852
H         11.69094       -0.07165       -5.20965
H         11.99737       -0.08892       -2.70271
H         13.71822       -0.39879       -2.91985
H         13.15134       -2.54921       -4.14239
H         11.44208       -2.25308       -3.83851
H         11.87576       -2.32515       -1.35290
H         13.58931       -2.60003       -1.66546
H         12.99879       -4.73385       -2.91491
H         11.29737       -4.48049       -2.51385
H         11.84480       -4.65135       -0.06625
H         13.57210       -4.85725       -0.47497
H         12.04509       -7.26014        0.83295
H         13.73605       -6.92070        0.38014
H         12.90219      -11.18838       -0.88521
H         10.75381      -12.33392       -0.20796
H         10.29108      -11.66962       -1.79671
H          8.82095      -10.21933       -0.61245
H         10.28366       -8.23420        0.08165
H         10.48435      -10.85664        1.90245
H          8.85733      -11.49252        1.49735
H          9.61195       -9.77199        3.85977
H          7.92753      -10.26700        3.52602
H          7.31490       -7.85001        3.16098
H          8.97882       -7.37456        3.52123
H          8.73468       -8.36424        5.84827
H          7.05849       -8.77161        5.48361
H          6.55115       -6.33218        5.10211
H          8.22810       -5.92730        5.46082
H          7.95453       -6.88430        7.78289
H          6.27124       -7.26114        7.42305
H          5.80725       -4.81155        7.03637
H          7.49081       -4.43668        7.39406
H          7.20608       -5.37605        9.71441
H          5.52233       -5.74630        9.35852
H          6.74670       -2.90867        9.36674
H          5.70102       -3.58848       10.62754
H          5.04955       -3.27848        9.00728
H         14.61027       -7.92764       -1.50822
H         13.84499       -9.32162       -2.27657
H         15.33856       -9.48041        0.40884
H         16.08922       -9.75465       -1.18936
H         17.74085      -11.80391       -1.32487
H         16.68000      -12.58488       -2.52447
H         17.57687      -13.56368       -1.34623
H         16.83991      -11.58662        1.66151
H         16.76364      -13.35202        1.74589
H         15.34374      -12.38883        2.19937
H         13.95793      -13.91650       -1.57492
H         13.50669      -13.84777        0.15200
H         14.82162      -14.90469       -0.38459
