53

C          0.25778        4.28558       -4.58002
C          1.76857        4.51664       -4.63679
C          2.44951        4.34326       -3.27535
C          3.96267        4.57791       -3.31874
C          4.63266        4.40194       -1.95135
C          6.15135        4.61096       -2.00701
C          6.77418        4.42994       -0.61793
N          8.24790        4.49249       -0.63582
N          9.00623        3.43382       -0.80369
N         10.26113        3.82893       -0.90253
C         10.28895        5.17325       -0.79991
N          9.01671        5.61451       -0.63977
C          8.49010        6.97012       -0.38723
C          8.40615        7.30766        1.10501
C          7.85387        8.72142        1.32707
C          7.81138        9.09610        2.80992
C         11.52775        5.98940       -0.81861
C         12.29764        5.92741        0.52498
C         13.63241        6.67514        0.45082
C         14.39914        6.62540        1.77363
H         -0.20252        4.40731       -5.56951
H         -0.22921        4.99737       -3.89750
H          0.02228        3.27154       -4.22577
H          1.97495        5.52997       -5.02003
H          2.22342        3.81916       -5.35982
H          2.24852        3.32692       -2.89477
H          1.99212        5.03676       -2.54810
H          4.16605        5.59425       -3.69841
H          4.42129        3.88185       -4.04177
H          4.42034        3.39020       -1.56631
H          4.18524        5.10803       -1.23068
H          6.37871        5.61549       -2.40030
H          6.60806        3.88327       -2.69546
H          6.55870        3.43279       -0.21318
H          6.41686        5.17572        0.10491
H          7.51116        7.03813       -0.87994
H          9.16619        7.65532       -0.91539
H          9.40966        7.22296        1.55055
H          7.76915        6.57053        1.62035
H          6.84236        8.79196        0.89509
H          8.47596        9.44686        0.77791
H          7.16876        8.41029        3.37944
H          7.41622       10.11059        2.94348
H          8.81467        9.06714        3.25763
H         11.30123        7.03217       -1.08424
H         12.16380        5.57797       -1.61699
H         12.47129        4.87164        0.78443
H         11.67374        6.35273        1.32858
H         13.45133        7.72405        0.16265
H         14.24554        6.23578       -0.35274
H         13.82554        7.09058        2.58843
H         15.35410        7.15999        1.69314
H         14.62086        5.58982        2.06794
