79

C          0.37875      -10.25669       -4.57942
C          1.35864       -9.18229       -5.05577
C          2.44107       -8.86241       -4.02112
C          3.42752       -7.76198       -4.43260
N          2.78158       -6.46321       -4.73014
C          2.40262       -5.65361       -3.71858
S          2.69716       -5.95304       -2.10339
S          1.52612       -4.17414       -4.29897
C          1.14842       -3.26965       -2.77179
C         -0.31026       -3.41220       -2.31568
C         -0.61146       -4.79931       -1.70948
N         -1.97573       -5.30536       -1.96974
C         -3.05262       -4.73072       -1.40597
N         -4.30303       -5.01449       -1.82446
C         -5.53449       -4.59593       -1.13252
C         -5.73707       -3.09342       -1.06491
C         -5.66835       -2.29501       -2.21748
C         -5.86763       -0.91961       -2.13619
C         -6.14591       -0.29214       -0.90769
C         -6.20982       -1.09590        0.23879
C         -6.00748       -2.47706        0.16398
C         -6.39353        1.19090       -0.83827
N         -2.90988       -3.87553       -0.37479
C         -2.09298       -6.40935       -2.93571
C         -1.99517       -5.95324       -4.39828
C         -2.10262       -7.13533       -5.36920
C         -1.77949       -6.68184       -6.79495
S         -1.88808       -8.07811       -7.94332
O         -0.80474       -8.99824       -7.68353
O         -3.25869       -8.52667       -8.01612
Cl        -1.44826       -7.09949       -9.72969
C          2.62018       -6.10434       -6.15397
C          3.72477       -5.19714       -6.71872
C          5.14145       -5.78197       -6.68277
C          6.17247       -4.84272       -7.31441
H         -0.38236      -10.46723       -5.34217
H         -0.13618       -9.94937       -3.65512
H          0.89808      -11.20048       -4.35952
H          0.80108       -8.26175       -5.29787
H          1.82003       -9.50470       -6.00351
H          3.03913       -9.76541       -3.81564
H          1.97653       -8.58225       -3.06297
H          3.97055       -8.05494       -5.34004
H          4.16039       -7.59681       -3.63185
H          1.37841       -2.22031       -2.99782
H          1.86103       -3.63596       -2.01273
H         -0.98222       -3.23662       -3.16894
H         -0.52238       -2.60930       -1.59172
H         -0.40013       -4.82752       -0.62848
H          0.07606       -5.54181       -2.13506
H         -4.40119       -5.55347       -2.67391
H         -5.54232       -5.02269       -0.11760
H         -6.35650       -5.07278       -1.68423
H         -5.45944       -2.75119       -3.18776
H         -5.81431       -0.31592       -3.04427
H         -6.42367       -0.63776        1.20605
H         -6.07447       -3.08154        1.07222
H         -5.69538        1.74668       -1.47842
H         -6.29966        1.56966        0.18673
H         -7.41010        1.42873       -1.18733
H         -1.98834       -3.66202       -0.01941
H         -3.66680       -3.22768       -0.16092
H         -3.02341       -6.96407       -2.74117
H         -1.27615       -7.11104       -2.71132
H         -1.02819       -5.44494       -4.54224
H         -2.77671       -5.20569       -4.61629
H         -3.11116       -7.57540       -5.33816
H         -1.39904       -7.92594       -5.06932
H         -0.75423       -6.29844       -6.88916
H         -2.48668       -5.93177       -7.17418
H          1.63894       -5.62056       -6.28289
H          2.57757       -7.04771       -6.71379
H          3.71086       -4.23287       -6.18715
H          3.44428       -4.97346       -7.76204
H          5.15595       -6.75264       -7.20730
H          5.43167       -5.98713       -5.63984
H          5.93977       -4.64525       -8.37093
H          7.18197       -5.27178       -7.27082
H          6.19935       -3.87426       -6.79315
