102

C          1.52970        7.88779        2.26826
C          2.65544        6.90580        1.93470
C          3.95683        7.20636        2.69001
C          5.08202        6.18762        2.46537
C          5.62842        6.13392        1.03176
C          6.89092        5.29806        0.90763
O          6.56831        3.92505        1.22620
C          7.68062        3.10997        1.45221
N          8.34560        3.45395        2.71704
C          9.66741        2.90350        2.92323
C          9.66064        1.51440        3.57851
N          8.86580        1.59178        4.86314
C          7.42218        2.07085        4.64720
C          7.53720        3.43290        3.92577
C          6.49772        1.05619        3.96391
C          5.85031       -0.02918        4.84638
C          5.27201        0.42519        6.19754
S          4.23765        1.91656        6.12891
C          5.10221        3.07309        7.21613
S          6.53506        2.70521        8.01631
N          4.47216        4.26036        7.32357
C          3.18071        4.54873        6.66131
C          1.93859        4.05303        7.41774
C          1.72889        4.65805        8.81020
C          0.44565        4.15487        9.47537
C          5.05661        5.34007        8.15095
C          6.15645        6.14655        7.44821
C          5.71682        6.88004        6.17745
C          6.83934        7.70888        5.55038
C          9.05132        0.37308        5.73758
O         10.35342        0.49941        6.20423
C         10.98855       -0.72435        6.65358
C         12.43022       -0.38696        6.98868
C         13.25365       -1.60666        7.41946
C         14.70933       -1.24146        7.73549
C         15.57752       -2.44088        8.12724
C         17.02925       -2.06126        8.44192
C         17.90074       -3.26095        8.82224
H          0.61187        7.65165        1.71320
H          1.81284        8.92026        2.01615
H          1.28425        7.86735        3.34103
H          2.83951        6.92190        0.84850
H          2.33228        5.87672        2.17012
H          3.73542        7.25448        3.77020
H          4.31570        8.21370        2.41489
H          4.72590        5.18444        2.75541
H          5.92026        6.42647        3.14037
H          5.87294        7.15355        0.68972
H          4.87050        5.74463        0.33497
H          7.66644        5.66161        1.60399
H          7.29758        5.33594       -0.11882
H          8.44983        3.21554        0.66182
H          7.28467        2.07714        1.41111
H         10.25269        3.58896        3.56678
H         10.20003        2.84107        1.96358
H         10.66904        1.17961        3.84996
H          9.18129        0.75535        2.94775
H          9.30494        2.34016        5.42812
H          7.07175        2.27075        5.67417
H          7.96483        4.16137        4.64098
H          6.52698        3.78575        3.68542
H          6.98449        0.57013        3.10428
H          5.69078        1.66268        3.52888
H          6.56001       -0.84465        5.06207
H          5.05767       -0.49654        4.24343
H          6.04974        0.67129        6.94365
H          4.64719       -0.37132        6.62181
H          3.20744        4.11914        5.64818
H          3.13458        5.63813        6.53520
H          1.96809        2.95527        7.49339
H          1.07162        4.28936        6.77816
H          1.69874        5.75866        8.73652
H          2.58858        4.41334        9.45481
H         -0.44227        4.41417        8.88072
H          0.31608        4.59266       10.47372
H          0.46023        3.06130        9.59156
H          5.45545        4.88061        9.06431
H          4.22594        5.99899        8.43448
H          7.00263        5.47781        7.22541
H          6.53180        6.87492        8.18612
H          4.86148        7.53869        6.40511
H          5.35149        6.14831        5.43909
H          7.22157        8.46280        6.25317
H          6.49308        8.23884        4.65305
H          7.68952        7.07418        5.25607
H          8.89427       -0.52865        5.12043
H          8.29567        0.43575        6.54006
H         10.92564       -1.47572        5.84454
H         10.44811       -1.11536        7.53312
H         12.43842        0.37375        7.78532
H         12.89382        0.07840        6.10328
H         13.23303       -2.36886        6.62116
H         12.79185       -2.07663        8.30442
H         14.72737       -0.49517        8.54880
H         15.15500       -0.74162        6.85749
H         15.56408       -3.18501        7.31137
H         15.13431       -2.94544        9.00369
H         17.04089       -1.32214        9.26083
H         17.46727       -1.54934        7.56821
H         17.50779       -3.77564        9.71127
H         18.93046       -2.95207        9.04642
H         17.94578       -3.99761        8.00669
