94

C          1.46829        1.00704       -0.40363
C          2.69822        0.73124        0.43728
O          3.91264        1.13470       -0.27971
P          4.82449        0.05818       -1.03971
O          4.26378       -1.31032       -1.13961
O          5.19799        0.79080       -2.42791
C          4.17331        0.95533       -3.45359
C          4.82312        1.60520       -4.65770
C          6.45475        0.16183       -0.23460
C          7.40973       -0.90736       -0.78246
C          8.88606       -0.57044       -0.46793
C          9.80263       -1.61748       -0.98609
N         10.27061       -2.60605       -0.19546
N         10.98966       -3.41272       -0.94279
N         10.98214       -2.95040       -2.17056
N         10.23579       -1.80739       -2.26267
Si        10.12403       -0.74074       -3.85893
C         11.89207       -0.22054       -4.15780
C          9.35387       -1.85519       -5.14101
C          9.05255        0.74377       -3.51924
C         11.62503       -3.69811       -3.25614
C         10.78667       -4.91205       -3.68264
O         11.46374       -5.43322       -4.79791
C         10.90552       -6.66578       -5.27983
C         11.87255       -7.23326       -6.31071
O         11.20715       -8.34843       -6.87997
C         11.91632       -9.15545       -7.74763
C         11.22717      -10.27560       -8.23125
C         11.86045      -11.15498       -9.09861
C         13.19484      -10.96674       -9.51167
C         13.84851       -9.82741       -9.03167
C         13.22992       -8.92270       -8.15805
C         13.87818      -11.99570      -10.42145
C         14.03241      -13.38618       -9.71343
C         14.68293      -13.59917       -8.31086
C         16.08801      -12.98205       -8.17667
C         13.80033      -13.07455       -7.15904
C         14.81289      -15.12958       -8.14476
C         12.98415      -12.23828      -11.66500
C         15.23088      -11.48931      -10.96326
H          0.56459        0.77918        0.17923
H          1.45782        0.37577       -1.30245
H          1.42288        2.06193       -0.70490
H          2.77593       -0.33360        0.69640
H          2.70551        1.32957        1.35769
H          3.36984        1.58645       -3.04348
H          3.75460       -0.03271       -3.69675
H          5.25035        2.58190       -4.39450
H          4.07516        1.76001       -5.44718
H          5.62076        0.96913       -5.06670
H          6.30078        0.03955        0.84701
H          6.83939        1.17959       -0.39824
H          7.28380       -1.00597       -1.87092
H          7.15388       -1.88778       -0.35765
H          9.04384       -0.53655        0.61855
H          9.14670        0.41670       -0.86911
H         12.57778       -1.03606       -4.41699
H         12.29572        0.30765       -3.28279
H         11.89615        0.48820       -4.99975
H         10.00830       -2.65504       -5.50746
H          9.09464       -1.22552       -6.00574
H          8.41911       -2.29950       -4.77215
H          9.47729        1.42559       -2.77254
H          8.01040        0.51759       -3.26344
H          9.03586        1.29285       -4.47526
H         12.60193       -4.01784       -2.87465
H         11.78700       -3.02760       -4.10467
H          9.75086       -4.60165       -3.92933
H         10.73232       -5.64004       -2.85152
H          9.91923       -6.48595       -5.74346
H         10.77386       -7.37711       -4.44585
H         12.81641       -7.53343       -5.82288
H         12.10401       -6.46799       -7.07437
H         10.19904      -10.44343       -7.90943
H         11.30267      -12.02687       -9.44187
H         14.87659       -9.62294       -9.32736
H         13.78776       -8.05183       -7.81535
H         14.58673      -14.01931      -10.42773
H         13.02576      -13.83390       -9.65245
H         16.05295      -11.88459       -8.15074
H         16.75057      -13.28844       -8.99912
H         16.55346      -13.31319       -7.23622
H         13.74333      -11.97964       -7.13971
H         14.21314      -13.40437       -6.19373
H         12.77370      -13.46276       -7.23186
H         15.47613      -15.56041       -8.90935
H         13.83446      -15.62558       -8.23165
H         15.22839      -15.38044       -7.15784
H         12.00029      -12.64630      -11.39872
H         13.46537      -12.95633      -12.34465
H         12.82471      -11.30076      -12.21596
H         15.96294      -11.26079      -10.18166
H         15.09262      -10.58551      -11.57436
H         15.67676      -12.25901      -11.60833
