96

O          1.02541        2.16782        2.54969
C          2.11352        1.58401        1.83856
C          3.08033        2.71594        1.52015
O          4.15353        2.15538        0.76304
C          5.14651        3.09313        0.40274
C          6.17328        2.32561       -0.42748
C          7.43896        3.11687       -0.81289
C          8.47343        2.18131       -1.44952
N          8.00892        1.70752       -2.80869
C          7.76795        2.87591       -3.74142
C          6.76877        3.85702       -3.13380
C          7.18233        4.34718       -1.72992
C          8.37537        5.32083       -1.80537
C          8.73044        6.01939       -0.49484
O          9.93343        6.72969       -0.72008
C         10.48268        7.29952        0.46649
C         11.86177        7.84212        0.11557
O         12.48365        8.16330        1.35210
C         13.81176        8.52780        1.33191
C         14.41561        8.68765        2.58700
C         15.75353        9.04620        2.67023
C         16.54111        9.27192        1.52349
C         15.91526        9.09781        0.28559
C         14.56645        8.73181        0.17509
C         18.01389        9.67928        1.66743
C         18.17925       10.98231        2.51855
C         17.57311       12.37066        2.14797
C         18.12373       12.94343        0.82642
C         16.03303       12.36671        2.08597
C         18.00183       13.32011        3.28911
C         18.74547        8.55793        2.45230
C         18.72597        9.78828        0.30582
C          8.92069        0.63972       -3.40874
C          8.25384       -0.04045       -4.57362
C          7.16607       -0.88701       -4.29884
C          6.46372       -1.51208       -5.32676
C          6.86731       -1.30371       -6.64745
C          7.96266       -0.48482       -6.92481
C          8.67659        0.16504       -5.90626
C          9.86501        1.02648       -6.26206
H          0.41315        1.46471        2.81157
H          1.78277        1.11389        0.89422
H          2.63380        0.81686        2.43966
H          3.45652        3.16981        2.45550
H          2.56180        3.50322        0.94141
H          5.62665        3.53233        1.30170
H          4.69897        3.92914       -0.17178
H          5.64039        1.93210       -1.31158
H          6.47110        1.44567        0.16525
H          7.90255        3.46634        0.12340
H          8.63135        1.28339       -0.83747
H          9.44461        2.66921       -1.60578
H          7.09431        1.24861       -2.67391
H          7.40817        2.45407       -4.68787
H          8.75190        3.33331       -3.91301
H          5.77259        3.38866       -3.10314
H          6.67893        4.70772       -3.82430
H          6.32742        4.90264       -1.31485
H          8.15174        6.09402       -2.55645
H          9.29124        4.81964       -2.15927
H          8.87956        5.29042        0.32836
H          7.91463        6.70069       -0.17849
H         10.58935        6.52759        1.25219
H          9.82942        8.09944        0.86059
H         11.78252        8.72909       -0.53759
H         12.43225        7.06462       -0.42338
H         13.81837        8.52404        3.48448
H         16.19069        9.16693        3.66238
H         16.47341        9.25741       -0.63606
H         14.12731        8.61935       -0.81549
H         19.26745       11.13118        2.63212
H         17.81604       10.74825        3.53349
H         17.71263       12.42948       -0.05191
H         19.22070       12.87728        0.77860
H         17.85081       14.00525        0.73556
H         15.65032       11.76215        1.25419
H         15.66357       13.39460        1.95114
H         15.59168       11.97316        3.01306
H         19.09742       13.39198        3.36169
H         17.62366       12.97141        4.26181
H         17.60928       14.33343        3.12036
H         18.34248        8.43512        3.46665
H         19.81674        8.78914        2.54440
H         18.64516        7.59560        1.93085
H         18.24622       10.49205       -0.38317
H         18.77140        8.80809       -0.19094
H         19.75944       10.13020        0.45470
H          9.12091       -0.06625       -2.59057
H          9.85953        1.14110       -3.67051
H          6.87653       -1.08122       -3.26094
H          5.62262       -2.16662       -5.09960
H          6.33470       -1.79074       -7.46458
H          8.27801       -0.34571       -7.96021
H         10.04814        0.99788       -7.34209
H         10.78604        0.68271       -5.76825
H          9.72055        2.08303       -5.99005
