45

C          0.79112        0.25318        0.64340
C          2.31862        0.20741        0.56839
C          2.85695       -1.14871        0.10171
C          4.38431       -1.19820        0.00171
C          4.92087       -2.55868       -0.45413
C          6.44300       -2.57723       -0.63277
C          6.97213       -3.94945       -1.07462
C          8.47226       -3.90761       -1.30327
O          9.00862       -5.26382       -1.57967
C          9.03939       -5.67781       -2.83148
O          8.68099       -5.03883       -3.81604
C          9.60329       -7.10447       -2.88736
C          9.68394       -7.70885       -4.25375
N          9.30632       -7.06325       -5.33395
C          9.61481       -7.67533       -6.61410
C          9.84011       -9.16915       -6.30398
S         10.32586       -9.26869       -4.53659
Br        11.36628       -6.85959       -7.21311
C          8.61333       -7.42497       -7.69476
C          7.46184       -6.76542       -7.54185
H          0.43357        1.23623        0.97789
H          0.40447       -0.49862        1.34723
H          0.33830        0.05051       -0.33875
H          2.74566        0.44583        1.55701
H          2.67885        0.99427       -0.11539
H          2.41992       -1.39345       -0.88262
H          2.50794       -1.93624        0.79242
H          4.82485       -0.94157        0.98076
H          4.72741       -0.41789       -0.69996
H          4.44137       -2.83938       -1.40807
H          4.62715       -3.33264        0.27577
H          6.92845       -2.28497        0.31383
H          6.72959       -1.81341       -1.37550
H          6.46642       -4.26121       -2.00225
H          6.74342       -4.70275       -0.30425
H          9.01783       -3.60808       -0.40036
H          8.74995       -3.25603       -2.14128
H          8.99637       -7.75122       -2.23353
H         10.60824       -7.10770       -2.43271
H          8.98631       -6.07656       -5.17962
H         10.61880       -9.62154       -6.92506
H          8.89977       -9.72791       -6.41364
H          8.89722       -7.84127       -8.66332
H          7.14235       -6.32913       -6.59420
H          6.78611       -6.63793       -8.38655
