63

C          0.87168        0.36166        0.16854
C          2.38996        0.43754       -0.00757
C          2.90926       -0.46259       -1.13572
C          4.43271       -0.38979       -1.30976
C          4.92350       -1.29900       -2.42061
O          6.36527       -1.18705       -2.51557
C          6.91383       -2.03341       -3.49511
C          8.38254       -1.75120       -3.51182
N          8.95163       -0.70850       -2.88963
C         10.33564       -0.73673       -3.02510
C         10.59662       -1.85528       -3.77119
N          9.37974       -2.47028       -4.06509
C          9.22096       -3.69537       -4.80563
C          8.45524       -3.71568       -5.97042
C          8.33663       -4.93907       -6.63861
N          8.92383       -6.06978       -6.22592
C          9.66462       -6.01843       -5.11061
C          9.84704       -4.85638       -4.35425
C         11.24285        0.31482       -2.48491
C         11.15197        1.65030       -3.25412
C         12.19822        2.66462       -2.78025
N         12.13678        3.87273       -3.58910
C         13.26514        4.79411       -3.35110
C         13.13020        6.06044       -4.15919
C         13.87143        6.26559       -5.32860
C         13.76275        7.44364       -6.07060
C         12.89193        8.44723       -5.64025
C         12.13374        8.26638       -4.48243
C         12.25050        7.08048       -3.75120
O         11.51045        6.85334       -2.60907
H          0.53185        1.01551        0.98258
H          0.54660       -0.66148        0.40801
H          0.34568        0.67128       -0.74660
H          2.88678        0.15708        0.93628
H          2.68773        1.48016       -0.20958
H          2.41462       -0.18261       -2.08177
H          2.61091       -1.50574       -0.93295
H          4.93158       -0.67420       -0.36939
H          4.73479        0.64625       -1.53334
H          4.47884       -1.02074       -3.39418
H          4.66322       -2.35341       -2.21396
H          6.47664       -1.83723       -4.49599
H          6.74700       -3.10816       -3.27633
H          8.39274       -0.04114       -2.35949
H         11.53280       -2.25777       -4.13771
H          7.98698       -2.81340       -6.36369
H          7.74720       -5.00522       -7.55636
H         10.13346       -6.95420       -4.79696
H         10.44319       -4.86404       -3.44159
H         12.26991       -0.07528       -2.53755
H         11.02859        0.47222       -1.41475
H         10.14114        2.07889       -3.14037
H         11.29768        1.47261       -4.32996
H         13.20333        2.22723       -2.91092
H         12.08195        2.84587       -1.68716
H         11.26739        4.37589       -3.39877
H         14.18777        4.27369       -3.65178
H         13.37095        5.05239       -2.27722
H         14.55625        5.47981       -5.65402
H         14.35693        7.58092       -6.97359
H         12.79924        9.37638       -6.20333
H         11.44978        9.04856       -4.14216
H         11.00633        7.65689       -2.40245
