61

C          1.71129       -4.67656       -0.99388
C          2.43340       -3.35594       -0.71636
C          3.38108       -3.44056        0.48913
C          4.10934       -2.12520        0.71639
O          4.98360       -2.17913        1.90020
C          6.21479       -2.67169        1.71064
O          6.67917       -3.04439        0.65020
C          6.96887       -2.71426        3.04169
C          8.51071       -2.61065        2.90662
C          9.08561       -3.88528        2.23925
O         10.42572       -4.15885        2.60897
C         10.50164       -4.47887        3.99032
C         10.30640       -3.22267        4.84058
N          9.00998       -2.53238        4.38069
C         11.53472       -2.31030        4.84112
C         11.41099       -0.97910        5.59762
C         11.02222       -1.10144        7.07800
C         11.04506        0.24423        7.80739
C          8.87212       -1.30358        2.13607
C          8.30065       -0.10090        2.87787
O          8.45363        0.06154        4.09362
O          7.63657        0.72140        2.08120
C          6.99272        1.91700        2.66211
C          5.57104        1.97626        2.14539
C         10.35055       -1.03335        1.79666
H          1.04443       -4.58735       -1.86127
H          1.09929       -4.98746       -0.13476
H          2.42538       -5.48558       -1.20519
H          1.69255       -2.55722       -0.54607
H          3.00743       -3.05629       -1.60871
H          4.11863       -4.24097        0.31993
H          2.81444       -3.70444        1.39651
H          3.41548       -1.30785        0.94993
H          4.72721       -1.84909       -0.14874
H          6.70893       -3.67642        3.51670
H          6.57167       -1.92145        3.69209
H          9.05420       -3.76636        1.15086
H          8.44654       -4.75103        2.49897
H         11.50059       -4.89363        4.17672
H          9.75358       -5.25593        4.24239
H         10.08316       -3.51912        5.87661
H          9.00837       -1.48985        4.58376
H          8.25595       -2.92178        4.95658
H         11.87172       -2.14354        3.80973
H         12.32532       -2.91500        5.31529
H         10.70518       -0.30136        5.08834
H         12.38793       -0.47552        5.52715
H         11.70757       -1.80715        7.57725
H         10.01320       -1.54118        7.17867
H         12.04807        0.69336        7.77899
H         10.76122        0.13158        8.86171
H         10.34741        0.95944        7.34782
H          8.33296       -1.39831        1.18456
H          7.59764        2.76860        2.32374
H          7.05129        1.84321        3.75411
H          5.54502        2.02019        1.04931
H          5.08235        2.87958        2.53471
H          4.99177        1.10459        2.47907
H         10.93210       -0.73083        2.67422
H         10.40109       -0.21434        1.06860
H         10.82438       -1.91440        1.34957
