53

N          0.64079       -0.29959        0.24263
C          2.03947        0.09024        0.15661
C          3.04432       -0.70012        1.02589
N          3.35374       -2.05255        0.41769
C          3.84648       -1.98906       -1.04302
C          2.70168       -1.24020       -1.76407
N          2.55472        0.09766       -1.21444
C          2.68810       -1.30105       -3.31849
C          3.69241       -0.42940       -4.20509
C          4.79026       -1.19162       -5.07485
C          4.30689       -2.15350       -6.24086
C          5.24859       -2.28857       -7.51348
C          6.73296       -2.81872       -7.36675
C          7.04554       -4.27004       -6.81632
C          6.41924       -5.51911       -7.54102
F          6.60125       -5.44700       -8.86798
F          7.02703       -6.62381       -7.07400
F          5.10274       -5.61740       -7.27926
F          8.39316       -4.39641       -6.89770
F          6.68975       -4.32904       -5.50282
F          7.27098       -2.73070       -8.60629
F          7.40309       -1.96486       -6.54421
F          4.59276       -3.12300       -8.36112
F          5.33226       -1.07115       -8.10159
F          4.10741       -3.39791       -5.74636
F          3.11878       -1.68547       -6.70796
F          5.53810       -0.19471       -5.60081
F          5.57111       -1.91088       -4.21562
F          2.97992        0.37006       -5.02165
F          4.40646        0.38297       -3.36805
F          2.83303       -2.62263       -3.64684
F          1.42563       -0.92827       -3.68062
C          5.27041       -1.43385       -1.07370
C          6.37997       -2.46154       -0.74908
O          7.64675       -1.86263       -0.98618
C          6.31337       -3.09364        0.64718
H          0.18760       -0.01225        1.10765
H          0.41921       -1.27448        0.05026
H          2.09302        1.12502        0.52800
H          2.64396       -0.88409        2.03009
H          3.99520       -0.16246        1.10866
H          2.51159       -2.64430        0.45966
H          4.07885       -2.52837        0.97747
H          3.84197       -3.03511       -1.38655
H          1.79752       -1.87338       -1.58878
H          1.92941        0.66253       -1.79208
H          5.36556       -0.54938       -0.42479
H          5.48126       -1.06563       -2.07925
H          6.32061       -3.26790       -1.49953
H          7.84362       -1.21931       -0.28456
H          6.24957       -2.33298        1.44525
H          7.22456       -3.67742        0.82930
H          5.48177       -3.81444        0.75153
