52

C          7.79001        4.32355       -8.02512
C          7.45266        3.72094       -6.66003
C          5.96357        3.82808       -6.31497
C          5.57868        3.22937       -4.96041
N          6.18552        3.96616       -3.84431
C          6.74735        3.37173       -2.76809
O          6.83110        2.14494       -2.63020
C          7.23471        4.33538       -1.66871
N          8.75040        4.38735       -1.47072
C          9.36865        5.08021       -2.68156
C         10.84192        5.43077       -2.47915
O         11.04272        6.18458       -1.29370
C         10.60059        5.45097       -0.15517
C          9.08471        5.22557       -0.18916
C          8.29744        6.54655       -0.10911
C          8.60386        7.31876        1.17833
O          8.39994        6.42498        2.27164
C          9.35777        2.97441       -1.36989
C          8.99495        2.12601       -0.13894
O          7.59414        2.02141        0.07005
C          9.66338        0.75642       -0.30141
H          8.86021        4.22953       -8.25102
H          7.53113        5.39163       -8.06672
H          7.23601        3.81777       -8.82850
H          8.05055        4.22554       -5.88060
H          7.75125        2.65997       -6.63549
H          5.36941        3.30653       -7.08145
H          5.64044        4.88366       -6.35878
H          5.91546        2.18868       -4.86727
H          4.48456        3.23606       -4.83444
H          6.10792        4.97903       -3.86155
H          6.81157        3.99139       -0.71651
H          6.91564        5.36113       -1.87734
H          8.79027        5.99801       -2.84506
H          9.23114        4.41677       -3.54605
H         11.16074        6.06075       -3.32072
H         11.48178        4.52928       -2.48081
H         10.84657        6.04958        0.72932
H         11.15630        4.50143       -0.06316
H          8.78146        4.59019        0.65173
H          7.21962        6.34288       -0.10290
H          8.52732        7.20682       -0.95744
H          7.92108        8.18346        1.22717
H          9.63512        7.71436        1.16724
H          8.43909        6.92336        3.10255
H         10.44329        3.10001       -1.40766
H          9.04090        2.45605       -2.28169
H          9.39012        2.59781        0.77493
H          7.19854        1.70050       -0.77105
H          9.29868        0.24664       -1.20492
H          9.41354        0.13594        0.56720
H         10.75820        0.83722       -0.36276
