82

C          1.80864        2.24205        2.86433
C          2.53975        1.68032        1.66179
O          3.58645        0.77457        2.12791
P          3.85683       -0.65524        1.44447
O          4.80779       -1.41954        2.29824
O          2.42893       -1.34193        1.19756
C          1.72593       -1.98682        2.31022
C          1.91478       -3.49047        2.25740
C          4.37197       -0.35019       -0.27890
C          5.61015        0.55418       -0.44069
C          6.80819        0.03517        0.35677
C          8.14143        0.76820        0.12275
N          8.80785        0.31677       -1.10639
C          9.45106       -0.98343       -0.99654
C         10.41723       -1.16996        0.20379
N          9.55688       -0.79167        1.46283
C          9.05150        0.63783        1.35712
C         10.25599       -1.01142        2.77617
O         10.80654       -0.11941        3.34247
C         10.19839       -2.46215        3.36144
C          8.96811       -2.75282        4.33248
C          7.52609       -2.34368        3.84752
C          7.07700       -3.07116        2.54705
O          7.63308       -2.81323        1.49442
O          6.18130       -4.02735        2.67312
F          6.66594       -2.60986        4.86493
F          7.55073       -0.99446        3.63496
F          8.96672       -4.08642        4.57859
F          9.20308       -2.08124        5.48107
F         10.19565       -3.38299        2.35590
F         11.31567       -2.63721        4.09476
C         11.73361       -0.39813        0.14632
C         12.67204       -0.97281       -0.92844
C         14.08378       -0.38054       -0.84736
N         14.92814       -0.95118       -1.88525
C         16.35008       -0.57951       -1.75822
C         17.15373       -1.04297       -2.94688
C         17.97684       -2.17304       -2.88288
C         18.72975       -2.59623       -3.98024
C         18.66362       -1.87819       -5.17625
C         17.84648       -0.75117       -5.27133
C         17.09511       -0.34132       -4.16599
O         16.26151        0.75673       -4.22046
H          1.05856        2.97515        2.53704
H          2.50562        2.74323        3.54793
H          1.29224        1.44578        3.41648
H          3.03295        2.47530        1.08199
H          1.85081        1.13817        0.99689
H          0.67257       -1.70459        2.18243
H          2.08447       -1.56596        3.26171
H          1.55945       -3.89604        1.30113
H          1.34000       -3.96551        3.06489
H          2.97309       -3.75574        2.37803
H          3.50837        0.07336       -0.81240
H          4.55430       -1.34372       -0.71704
H          5.36718        1.57999       -0.12004
H          5.86348        0.60713       -1.51007
H          6.93114       -1.03424        0.13319
H          6.56098        0.08020        1.42633
H          7.94347        1.84604        0.00969
H          9.44377        1.02485       -1.46978
H         10.01712       -1.18097       -1.91576
H          8.67999       -1.76700       -0.93771
H         10.62001       -2.24240        0.32463
H          8.74242       -1.47131        1.43645
H          9.93234        1.28534        1.30076
H          8.51353        0.86127        2.28454
H          5.77009       -3.99467        3.56113
H         12.24425       -0.45307        1.12052
H         11.55950        0.67150       -0.04912
H         12.26088       -0.78199       -1.93335
H         12.74966       -2.06677       -0.82698
H         14.52833       -0.63712        0.12959
H         14.02880        0.73172       -0.87884
H         14.59869       -0.64734       -2.80419
H         16.74333       -1.05689       -0.84723
H         16.47936        0.51594       -1.63496
H         18.02874       -2.72597       -1.94278
H         19.36606       -3.47737       -3.90305
H         19.24874       -2.19172       -6.04136
H         17.78891       -0.18707       -6.20607
H         16.36959        1.18367       -5.08566
