30

C          1.50414        0.77760       -1.47933
C          2.42190        0.43293       -0.77194
C          3.52498        0.02554        0.08365
C          4.58384        1.15231        0.27813
C          5.04347        1.77857       -1.05638
C          5.91337        0.82971       -1.88924
C          7.11749        0.34140       -1.09566
N          6.65892       -0.27864        0.20408
C          5.80190        0.70005        1.12489
N          6.69558        1.75328        1.48163
C          5.45815       -0.15320        2.37226
C          4.60439        0.57430        3.29726
C          3.90170        1.20191        4.05388
H          0.68061        1.06855       -2.09890
H          3.97146       -0.89208       -0.34510
H          3.11865       -0.26074        1.06615
H          4.09635        1.93396        0.88021
H          5.59248        2.71562       -0.87060
H          4.14977        2.06534       -1.62509
H          6.28408        1.33833       -2.78945
H          5.32241       -0.02783       -2.25004
H          7.78890        1.16255       -0.81173
H          7.70298       -0.41993       -1.62735
H          7.48015       -0.54521        0.76249
H          6.11867       -1.13300        0.00923
H          6.50733        2.63886        1.01878
H          6.75300        1.90345        2.48646
H          6.40123       -0.42949        2.87869
H          4.97441       -1.09915        2.07900
H          3.27561        1.74042        4.73672
