81

C          0.81182        1.24519        1.99425
C          2.32211        1.28093        2.23840
C          2.96149       -0.11099        2.31199
C          4.48011       -0.06867        2.50917
C          5.12998       -1.45451        2.60572
C          6.65806       -1.37621        2.72841
C          7.30650       -2.75925        2.82327
S          9.13055       -2.49998        2.91491
C          9.74840       -4.10545        2.81523
N         10.76940       -4.51853        2.11741
N         11.00324       -5.84051        2.48094
C         10.07143       -6.15488        3.33955
O          9.23639       -5.13600        3.63728
N          9.83251       -7.39020        3.92472
C          8.87658       -7.49923        5.05240
O          8.16384       -8.69907        4.92852
C          8.99738       -9.83896        4.98959
N         10.07161       -9.72895        3.97525
C         10.44020       -8.54169        3.46256
N         11.38185       -8.44293        2.52695
C         10.69939      -10.98084        3.48506
C         10.51875      -11.22720        1.99865
C          9.27157      -11.06488        1.37638
C          9.13235      -11.30471        0.00938
C         10.23397      -11.71206       -0.75102
C         11.47654      -11.88144       -0.13834
C         11.61923      -11.63606        1.23110
C          9.53232      -10.10854        6.40616
O         10.08618      -11.41346        6.37659
C         10.56549      -11.90551        7.60333
C         11.67406      -11.29139        8.19122
C         12.22307      -11.78164        9.38074
C         13.43831      -11.14447       10.00374
C         11.61773      -12.90978        9.95547
C         10.52393      -13.52147        9.34881
C          9.96026      -13.04621        8.15284
C          8.78747      -13.78995        7.52917
C          7.50229      -12.94785        7.42570
C          9.15155      -14.44315        6.18192
H          0.38769        2.25773        1.95760
H          0.28908        0.69582        2.79143
H          0.57202        0.75142        1.04109
H          2.53320        1.82441        3.17451
H          2.81054        1.86073        1.43707
H          2.72875       -0.66909        1.38781
H          2.49733       -0.68242        3.13526
H          4.71602        0.50732        3.42090
H          4.93880        0.48783        1.67337
H          4.86474       -2.04669        1.71294
H          4.71388       -1.99832        3.47140
H          6.92791       -0.78244        3.61753
H          7.06874       -0.84048        1.85709
H          7.09617       -3.36366        1.93032
H          6.97342       -3.29887        3.71970
H          8.15584       -6.68091        4.97475
H          9.42831       -7.42613        6.00403
H          8.36327      -10.68625        4.69092
H         11.63730       -9.27165        1.99279
H         11.59203       -7.49082        2.16737
H         10.25438      -11.78683        4.08093
H         11.76807      -10.96649        3.74881
H          8.40379      -10.74412        1.95679
H          8.15984      -11.17580       -0.46640
H         10.12069      -11.89687       -1.81940
H         12.33830      -12.20314       -0.72361
H         12.59281      -11.77532        1.70811
H          8.67959      -10.05142        7.10570
H         10.28414       -9.35563        6.70227
H         12.13199      -10.42941        7.69986
H         13.72425      -10.22070        9.48505
H         14.29993      -11.82780        9.97124
H         13.26293      -10.90033       11.06103
H         12.01654      -13.32174       10.88417
H         10.08230      -14.40638        9.81190
H          8.56606      -14.61189        8.22929
H          7.57931      -12.17893        6.64440
H          7.27207      -12.44925        8.37694
H          6.64778      -13.58822        7.16578
H          9.34596      -13.68644        5.40874
H          8.32882      -15.08029        5.82858
H         10.04905      -15.06881        6.27530
