58

C          3.33158        0.63862        5.14348
C          4.33137        1.74935        4.81600
C          3.65988        3.03170        4.30872
C          4.60942        4.16238        3.96170
O          5.40499        3.75156        2.78930
C          6.06264        4.71640        2.14850
O          6.07118        5.90088        2.42548
C          6.85064        4.13887        0.96976
P          8.61948        4.54512        1.15348
C          9.57591        3.49616        0.01305
C         11.10399        3.69154        0.04362
C         11.74594        3.64016        1.45123
C         11.25315        2.54729        2.27957
C         10.78853        1.66940        2.97277
C          8.97706        6.32527        0.93709
C          9.12600        7.03445        2.29026
O         10.07212        6.28533        3.04828
C          9.99004        6.42376        4.47542
C          8.67203        5.92633        5.07528
O          8.30337        4.61147        4.66441
C          8.93997        3.53615        5.37163
C          8.05126        2.31755        5.15795
O          8.75774        1.15471        5.54652
C          7.91961        0.00223        5.56868
H          3.84262       -0.25960        5.51510
H          2.75148        0.34640        4.25615
H          2.61692        0.95684        5.91613
H          5.05247        1.38827        4.06520
H          4.91979        1.98901        5.71734
H          2.97608        3.42087        5.08161
H          3.02931        2.81289        3.43137
H          5.32702        4.38126        4.76688
H          4.08041        5.08782        3.70071
H          6.47973        4.57850        0.03246
H          6.75484        3.04647        0.91425
H          8.94385        4.21467        2.48808
H          9.17844        3.66480       -0.99953
H          9.31711        2.46543        0.30391
H         11.37848        4.64304       -0.43413
H         11.52953        2.89612       -0.58460
H         11.56727        4.59123        1.98318
H         12.83774        3.56004        1.33509
H         10.40013        0.92518        3.64090
H          8.17837        6.78147        0.33671
H          9.91547        6.38696        0.36631
H          8.14638        7.08940        2.78471
H          9.48851        8.06313        2.11801
H         10.14515        7.47565        4.77829
H         10.84033        5.83864        4.85154
H          7.83062        6.56744        4.77508
H          8.75213        5.98779        6.17610
H          9.01806        3.77994        6.44498
H          9.95372        3.33884        4.98416
H          7.75555        2.26333        4.08884
H          7.12159        2.42519        5.74560
H          8.54162       -0.84068        5.89014
H          7.50186       -0.21297        4.56759
H          7.08330        0.12846        6.27867
