45

C          1.51355        0.16504        3.42168
C          2.92074        0.28703        2.83118
C          3.14218        1.61581        2.12748
O          4.49512        1.65173        1.64486
C          4.80476        2.81427        0.91005
C          6.26992        2.66401        0.50970
C          6.55028        1.41855       -0.36937
C          7.62373        1.87682       -1.27080
N          7.84201        3.13957       -1.17411
C          6.93159        3.87395       -0.23743
C          5.95640        4.73865       -1.07667
C          5.06633        4.01708       -2.08344
O          5.36221        3.00472       -2.69392
O          3.91804        4.69296       -2.24353
C          3.00383        4.16654       -3.24600
C          7.76829        4.77829        0.73705
C          9.00593        4.06416        1.30433
O          9.98412        3.94411        0.26015
C          8.17189        6.15140        0.17142
H          1.38225       -0.80794        3.91117
H          0.73835        0.25155        2.64675
H          1.32283        0.94213        4.17542
H          3.10413       -0.52635        2.11208
H          3.67623        0.18226        3.62524
H          2.97661        2.46413        2.81931
H          2.44283        1.73506        1.27712
H          4.66179        3.72761        1.52387
H          4.14044        2.90371        0.02682
H          6.81999        2.52343        1.45166
H          5.68673        1.10665       -0.98177
H          6.85352        0.53020        0.20241
H          8.20613        1.26333       -1.96079
H          8.58109        3.62218       -1.68842
H          6.52960        5.47948       -1.65537
H          5.32405        5.32279       -0.39514
H          2.14935        4.84762       -3.23537
H          2.69546        3.14896       -2.97745
H          3.48623        4.15731       -4.23042
H          7.09412        4.94704        1.59464
H          8.75338        3.06926        1.71388
H          9.39688        4.67121        2.13664
H         10.84209        3.72244        0.65204
H          8.75693        6.07231       -0.75506
H          8.81014        6.66980        0.89854
H          7.30727        6.79815       -0.01458
