62

C         -0.39096       -1.49029       -2.22530
C          0.87736       -0.69421       -1.90909
C          2.15393       -1.35775       -2.43777
C          3.42920       -0.56450       -2.13142
C          4.69977       -1.24489       -2.65250
C          5.98374       -0.46293       -2.34590
C          7.22354       -1.21306       -2.84886
N          8.51805       -0.55496       -2.56927
C          8.96200        0.44025       -3.56750
C         10.40352        0.89269       -3.34016
C         11.19687       -0.23038       -2.67033
N         10.55320       -0.58013       -1.38622
C          9.21424       -0.83495       -1.45965
N          8.60752       -1.43057       -0.40945
C         11.23177        0.01597       -0.19886
C         11.03936       -0.52031        1.24095
C         11.54415       -1.95741        1.48221
F         12.84992       -2.08797        1.15660
F         11.38928       -2.31829        2.76371
F         10.84141       -2.86815        0.72096
O         11.70696        0.37005        2.10853
C         11.35052       -1.46957       -3.57982
O         10.88344       -1.53378       -4.69083
C         12.17887       -2.69905       -3.06122
C         13.57156       -2.89707       -3.77116
C         14.56918       -1.68593       -3.68947
C         14.96886       -1.24446       -2.24360
O         14.31329       -0.42835       -1.64005
O         16.05414       -1.82828       -1.73945
F         15.69309       -2.05260       -4.37732
F         13.99950       -0.62444       -4.32477
F         14.17900       -3.96607       -3.18302
F         13.36271       -3.17445       -5.07521
F         12.42200       -2.62365       -1.71910
F         11.44402       -3.81756       -3.29333
H         -1.28610       -0.98794       -1.83532
H         -0.35466       -2.49548       -1.78021
H         -0.52614       -1.61392       -3.30979
H          0.96500       -0.55728       -0.81794
H          0.79283        0.31976       -2.33492
H          2.06622       -1.50018       -3.52902
H          2.24200       -2.37120       -2.00789
H          3.51457       -0.41602       -1.04054
H          3.34787        0.44511       -2.56982
H          4.61692       -1.39362       -3.74255
H          4.77582       -2.25622       -2.21548
H          6.05600       -0.28256       -1.25817
H          5.93738        0.53474       -2.81098
H          7.17361       -1.33253       -3.94094
H          7.26629       -2.22830       -2.42729
H          8.27221        1.29651       -3.53250
H          8.85967       -0.03766       -4.55004
H         10.44704        1.76983       -2.67968
H         10.85317        1.18154       -4.29785
H         12.21848        0.10242       -2.43464
H          9.13692       -2.10219        0.14026
H          7.59831       -1.50608       -0.39369
H         10.96234        1.08304       -0.13447
H         12.30405       -0.04699       -0.42402
H          9.98464       -0.49262        1.54797
H         12.66856        0.30917        1.96520
H         16.48462       -2.40656       -2.40064
