91

C          0.07411        0.22994        0.28420
C          1.59687        0.09815        0.35839
C          2.33247        1.40554        0.04703
C          3.85668        1.29722        0.15454
C          4.58693        2.60118       -0.18099
C          6.11073        2.51452       -0.04500
C          6.82411        3.81947       -0.41151
C          8.34695        3.77652       -0.24327
C          9.02740        5.08017       -0.67258
C         10.54567        5.11213       -0.46312
C         11.17634        6.41340       -0.96943
C         12.68281        6.54867       -0.71809
C         13.24011        7.86791       -1.26295
C         14.72786        8.12069       -0.98958
C         15.18245        9.47953       -1.53962
C         16.61602        9.91068       -1.19722
C         17.71973        9.10838       -1.90331
C         19.13683        9.72000       -1.85097
C         20.09244        9.51379       -0.64494
C         20.40889        8.04340       -0.35795
N         19.34371        7.44778        0.45102
C         18.69027        8.12016        1.41037
N         17.87065        7.42320        2.23405
N         18.86945        9.43730        1.58751
C         19.79999       10.22316        0.70700
C         19.31275       11.63598        0.52244
C         20.05238       12.70444        0.83018
C         18.39840       10.07955        2.83567
C         16.93186       10.54128        2.80625
C         16.44101       11.06276        4.16613
C         16.98796       12.44841        4.52646
S         16.37805       12.92583        6.15731
O         14.93905       13.07742        6.10025
O         17.01622       12.07415        7.12861
O         17.03366       14.40415        6.30074
H         -0.42589       -0.72381        0.50251
H         -0.24980        0.55497       -0.71586
H         -0.29558        0.97247        1.00737
H          1.93508       -0.68308       -0.34317
H          1.88803       -0.25102        1.36359
H          1.97480        2.19536        0.73127
H          2.06019        1.74144       -0.96927
H          4.21429        0.49583       -0.51568
H          4.12685        0.97963        1.17711
H          4.21075        3.40724        0.47339
H          4.33055        2.90540       -1.21112
H          6.49007        1.69817       -0.68434
H          6.36860        2.23319        0.99121
H          6.41718        4.64075        0.20444
H          6.58296        4.08048       -1.45712
H          8.75936        2.93660       -0.82932
H          8.59209        3.56126        0.81176
H          8.57329        5.92305       -0.12220
H          8.80671        5.26518       -1.73861
H         11.00913        4.25205       -0.97730
H         10.77002        4.98411        0.61058
H         10.66069        7.26862       -0.49813
H         10.98307        6.50794       -2.05218
H         13.21520        5.69885       -1.18010
H         12.87938        6.48263        0.36718
H         12.65818        8.70355       -0.83616
H         13.06570        7.90927       -2.35186
H         15.32766        7.30405       -1.42752
H         14.90717        8.08889        0.10230
H         14.49293       10.25078       -1.15862
H         15.05853        9.48589       -2.63600
H         16.74754        9.87662       -0.10293
H         16.72995       10.96906       -1.48823
H         17.44971        9.05170       -2.97036
H         17.72640        8.06316       -1.55565
H         19.05960       10.80217       -2.04104
H         19.69942        9.32144       -2.71035
H         21.04131        9.97203       -0.96488
H         21.37111        7.94121        0.16901
H         20.47675        7.47029       -1.29130
H         19.06092        6.49254        0.26417
H         17.75521        6.42624        2.10079
H         17.13872        7.89698        2.74748
H         20.75832       10.27022        1.25484
H         18.32902       11.75970        0.06468
H         21.04394       12.60839        1.27945
H         19.70146       13.71638        0.62845
H         19.06179       10.93656        3.00612
H         18.56405        9.37735        3.66802
H         16.27575        9.70946        2.50032
H         16.80382       11.31192        2.03139
H         16.70577       10.34823        4.96199
H         15.34351       11.11765        4.14789
H         16.64986       13.21953        3.82078
H         18.08317       12.48257        4.60402
H         16.29813       15.04760        6.29035
