75

C          0.77034       -0.40349        0.25454
C          2.28896       -0.58256        0.32974
C          2.91547       -1.02730       -0.99652
C          4.43732       -1.19167       -0.93355
C          5.06277       -1.65772       -2.25228
C          6.58842       -1.78607       -2.19408
C          7.21545       -2.29259       -3.49692
C          8.74400       -2.38538       -3.44384
C          9.37074       -2.95303       -4.72146
C         10.90146       -3.01151       -4.67831
C         11.52152       -3.63858       -5.93081
C         13.05361       -3.68442       -5.89821
C         13.64922       -4.37511       -7.12931
C         15.18072       -4.40301       -7.09480
N         15.75624       -5.11776       -8.23684
N         16.07450       -6.45410       -8.14494
C         16.48041       -6.80304       -9.33601
N         16.43758       -5.71238      -10.19712
C         15.94900       -4.65167       -9.49217
N         15.72696       -3.42105       -9.93154
C         15.98723       -2.90305      -11.26067
C         16.08086       -1.34211      -11.13326
N         17.37204       -1.03904      -10.51123
N         15.77497       -0.80242      -12.45811
N         15.05393       -0.90817      -10.17856
C         16.91081       -8.17096       -9.73616
C         15.79327       -9.11035      -10.27561
C         15.01446       -8.50217      -11.46298
F         14.22165       -7.47094      -11.05103
F         15.87415       -7.98155      -12.40575
F         14.23868       -9.39900      -12.07705
O         16.31807      -10.37367      -10.59664
H          0.35303       -0.08871        1.22101
H          0.27102       -1.34103       -0.03263
H          0.49426        0.35811       -0.49003
H          2.53525       -1.32092        1.11166
H          2.75637        0.36352        0.65199
H          2.65983       -0.29556       -1.78342
H          2.45695       -1.98097       -1.31329
H          4.69429       -1.91059       -0.13556
H          4.89450       -0.23253       -0.63206
H          4.78658       -0.95379       -3.05718
H          4.62465       -2.62988       -2.53973
H          6.86590       -2.46664       -1.36983
H          7.02610       -0.80602       -1.93430
H          6.91914       -1.62930       -4.32864
H          6.79733       -3.28526       -3.74008
H          9.04153       -3.01304       -2.58541
H          9.16334       -1.38368       -3.24336
H          9.05286       -2.34592       -5.58753
H          8.97216       -3.96690       -4.90190
H         11.22002       -3.58485       -3.79029
H         11.30280       -1.99225       -4.53950
H         11.19259       -3.07900       -6.82414
H         11.13094       -4.66345       -6.05529
H         13.38615       -4.21179       -4.98778
H         13.45088       -2.65742       -5.81780
H         13.30622       -3.86424       -8.04517
H         13.28304       -5.41202       -7.19334
H         15.55246       -4.92622       -6.20489
H         15.61080       -3.38897       -7.08327
H         16.59145       -5.73813      -11.20031
H         15.26864       -2.69987       -9.34982
H         15.17137       -3.15371      -11.95671
H         16.93453       -3.29980      -11.65884
H         18.14246       -1.37009      -11.09317
H         17.49611       -0.02923      -10.41096
H         16.38833       -1.19103      -13.17810
H         15.90490        0.21128      -12.47091
H         15.38503       -0.14891       -9.58630
H         14.21154       -0.61317      -10.67156
H         17.32906       -8.66725       -8.85214
H         17.71280       -8.10191      -10.48669
H         15.04916       -9.28220       -9.48307
H         16.95017      -10.29907      -11.33253
