87

C          0.66817        0.59261        0.11226
C          2.19735        0.53995        0.10319
C          2.78101       -0.30684        1.23835
C          4.31145       -0.35903        1.24220
C          4.89492       -1.20148        2.37998
C          6.42576       -1.24678        2.39078
C          7.00435       -2.07627        3.54066
C          8.53490       -2.12072        3.55986
C          9.10839       -2.92700        4.72858
C         10.63877       -2.97887        4.74854
C         11.20701       -3.75604        5.93944
C         12.73697       -3.82116        5.95755
C         13.29897       -4.57162        7.16850
C         14.82801       -4.65845        7.18020
C         15.38266       -5.39544        8.40290
C         16.90912       -5.51982        8.39892
C         17.45471       -6.26723        9.62233
C         18.97747       -6.42913        9.57669
C         19.62266       -7.24017       10.72386
C         21.16190       -7.18521       10.61772
C         21.95641       -7.86877       11.73795
N         23.37757       -7.58039       11.55661
C         19.09990       -8.71128       10.71523
S         18.40027       -9.10495       12.36597
C         18.64819       -7.51584       12.89318
N         19.20168       -6.67228       12.06560
C         19.52598       -5.26982       12.40736
C         18.96591       -4.78491       13.73501
O         19.54953       -5.52804       14.79140
C         19.31881       -4.95495       16.09775
C         20.11923       -5.76263       17.10318
O         21.52179       -5.65505       16.90307
H          0.27909        1.20415       -0.71346
H          0.29099        1.02290        1.05214
H          0.23511       -0.41417        0.01415
H          2.60258        1.56378        0.17078
H          2.54737        0.13939       -0.86328
H          2.38016       -1.33370        1.16929
H          2.42733        0.09043        2.20642
H          4.71027        0.66863        1.30896
H          4.66488       -0.75784        0.27491
H          4.50027       -2.23059        2.31172
H          4.53691       -0.80445        3.34640
H          6.82035       -0.21710        2.45045
H          6.78603       -1.65336        1.42933
H          6.61050       -3.10627        3.48215
H          6.64096       -1.66828        4.50050
H          8.92907       -1.09000        3.60130
H          8.89989       -2.54592        2.60833
H          8.70947       -3.95610        4.69329
H          8.74692       -2.49538        5.67872
H         11.03865       -1.94967        4.76184
H         11.00113       -3.43227        3.80920
H         10.79918       -4.78220        5.93425
H         10.85120       -3.29392        6.87721
H         13.14681       -2.79603        5.94201
H         13.09298       -4.30412        5.03073
H         12.87712       -5.59177        7.19341
H         12.95402       -4.07821        8.09421
H         15.25393       -3.64071        7.14251
H         15.17159       -5.16602        6.26211
H         14.93692       -6.40452        8.45220
H         15.05856       -4.87451        9.32110
H         17.36282       -4.51498        8.34999
H         17.23072       -6.04329        7.48226
H         16.96164       -7.25277        9.67887
H         17.15342       -5.72877       10.53782
H         19.46120       -5.44053        9.52412
H         19.26753       -6.93904        8.64351
H         21.49285       -6.13837       10.54530
H         21.42102       -7.64267        9.64849
H         21.71189       -8.95051       11.77462
H         21.66135       -7.45303       12.71524
H         23.74844       -8.05163       10.73012
H         23.92185       -7.91443       12.35174
H         19.90480       -9.42730       10.51474
H         18.30138       -8.85897        9.97899
H         18.39649       -7.21111       13.91074
H         19.13423       -4.63532       11.59990
H         20.62231       -5.17595       12.41315
H         17.85949       -4.86003       13.75241
H         19.21895       -3.71200       13.81795
H         18.24120       -4.98764       16.34344
H         19.65703       -3.90401       16.09533
H         19.78611       -6.81755       17.08326
H         19.91675       -5.37051       18.10992
H         21.72739       -6.01791       16.02747
