46

C          2.02406       -0.02025       -0.19866
C          3.52787       -0.13230       -0.30461
O          4.14809        1.22370       -0.39805
C          4.46709        1.80193        0.73968
O          4.35730        1.44416        1.87620
N          5.10579        3.14589        0.38570
C          4.90035        4.18203        1.47764
C          4.38056        5.47201        0.83378
O          3.50854        5.06244       -0.21182
C          2.93743        6.15675       -0.97002
C          2.05533        5.57930       -2.05595
C          6.55793        2.91691       -0.01143
C          7.20271        4.16701       -0.59872
C          8.72115        3.96523       -0.73583
S          9.63224        5.52947       -0.78083
C          9.51060        6.05005        0.90655
S          8.93545        5.13694        2.15819
N         10.00680        7.34051        1.07983
C         10.22898        8.32174        0.09460
N         10.66547        9.43288        0.61270
C         10.75548        9.20282        1.98390
C         10.34748        7.93964        2.29836
H          1.59891       -1.03373       -0.20294
H          1.60138        0.52633       -1.05115
H          1.71813        0.46557        0.73658
H          3.85455       -0.60887       -1.23517
H          3.98021       -0.63808        0.55709
H          4.56155        3.53094       -0.42217
H          5.84558        4.33373        2.01197
H          4.16907        3.75693        2.17251
H          5.19958        6.09664        0.43399
H          3.84984        6.06187        1.60062
H          3.75848        6.76407       -1.39112
H          2.35924        6.79481       -0.28007
H          2.63200        4.95191       -2.74930
H          1.60440        6.39472       -2.63667
H          1.24244        4.97941       -1.62663
H          6.55718        2.08138       -0.72355
H          7.07521        2.60707        0.90739
H          7.04016        5.01015        0.08360
H          6.75603        4.42402       -1.57045
H          8.99491        3.46076       -1.67295
H          9.12383        3.38717        0.10859
H         10.00607        8.14535       -0.95375
H         11.11360        9.97408        2.65823
H         10.27626        7.39153        3.22868
