48

C          4.26902        2.62448       -1.09873
C          3.78788        2.14522        0.27280
C          4.63945        1.00493        0.84541
C          4.17473        0.55458        2.23502
C          4.89696       -0.68820        2.78892
C          6.44316       -0.62843        2.84753
C          7.04755       -2.03954        2.96077
N          6.99474       -2.29812        4.48764
C          7.00660       -0.94271        5.19779
C          7.07637        0.10150        4.06889
C          6.48116        1.45478        4.47185
C          7.29916        2.15926        5.56295
C          6.71241        3.51140        5.93959
F          6.64175        4.34424        4.86778
F          5.44911        3.38392        6.43270
F          7.46133        4.12079        6.88603
C          8.48828       -2.19679        2.47303
C          8.98968       -3.65093        2.48218
C         10.50985       -3.73297        2.51106
F         11.06817       -3.08329        1.46294
F         10.99583       -3.15516        3.65250
F         10.93326       -5.01185        2.49149
H          3.64099        3.44153       -1.47682
H          4.23873        1.81326       -1.84118
H          5.30372        2.99640       -1.05416
H          2.73891        1.81235        0.20424
H          3.79146        2.98923        0.98282
H          5.69073        1.34282        0.88045
H          4.61838        0.14688        0.14936
H          3.10240        0.30708        2.19048
H          4.24893        1.39778        2.93667
H          4.63296       -1.54021        2.13963
H          4.47763       -0.93011        3.78284
H          6.81359       -0.17098        1.91974
H          6.40182       -2.79936        2.49745
H          7.78568       -2.88389        4.78282
H          6.14093       -2.81408        4.72611
H          7.85559       -0.92344        5.88861
H          6.07774       -0.86804        5.77660
H          8.13904        0.27086        3.82832
H          5.44439        1.32842        4.81718
H          6.44452        2.10015        3.58301
H          8.33362        2.33619        5.23327
H          7.34314        1.57444        6.49402
H          9.16033       -1.56385        3.07327
H          8.53453       -1.79883        1.45044
H          8.63328       -4.20124        1.60082
H          8.64803       -4.21942        3.36326
