66

S          1.35948        0.21061        0.04416
C          2.96249       -0.04068        0.35526
N          3.51214       -1.18795        0.88088
C          4.68775       -1.19468        1.70123
C          5.67793       -2.16030        1.47513
C          6.82042       -2.17968        2.27394
C          6.97862       -1.24317        3.30159
C          5.97755       -0.29672        3.53900
C          4.82592       -0.27457        2.74919
C          2.72731       -2.40389        0.88684
C          2.32122       -2.95348        2.10593
C          1.58613       -4.14003        2.11351
C          1.25924       -4.77112        0.91082
C          1.67516       -4.21751       -0.30437
C          2.41432       -3.03495       -0.32100
S          3.95389        1.36880       -0.06198
C          5.74761        0.95035       -0.19516
C          6.38420        2.10303       -0.97883
C          7.91040        1.96374       -1.07183
C          8.60130        3.06818       -1.85127
N          8.10302        3.16380       -3.31337
C          8.27993        4.62577       -3.72916
C          8.65671        5.32503       -2.34985
O          8.29590        4.33547       -1.36594
C         10.07458        5.84630       -2.22133
C         10.47135        6.92720       -3.02358
C         11.76848        7.43060       -2.93812
C         12.68132        6.86792       -2.04104
C         12.28219        5.81361       -1.21835
C         10.98264        5.30525       -1.30425
C          9.23786        4.72669       -4.88655
C         10.51248        4.14101       -4.85439
C         11.33892        4.27863       -5.97149
N         10.98709        4.95325       -7.07524
C          9.77146        5.51455       -7.09589
C          8.86165        5.42428       -6.03697
H          5.54057       -2.89062        0.67688
H          7.58911       -2.93281        2.09679
H          7.87035       -1.26459        3.92869
H          6.08108        0.41610        4.35790
H          4.03177        0.44736        2.93999
H          2.57387       -2.44976        3.03913
H          1.26281       -4.56682        3.06329
H          0.68074       -5.69528        0.91864
H          1.42379       -4.71000       -1.24417
H          2.73467       -2.58902       -1.26276
H          5.86674       -0.00553       -0.72225
H          6.20053        0.86019        0.80102
H          6.13582        3.06234       -0.50076
H          5.91439        2.12587       -1.98161
H          8.19705        0.99732       -1.51855
H          8.35377        1.97105       -0.06450
H          9.68872        2.89353       -1.94150
H          7.10977        2.89298       -3.33471
H          8.62672        2.54518       -3.94673
H          7.28891        4.97830       -4.03771
H          7.95165        6.15407       -2.19567
H          9.76668        7.38444       -3.72115
H         12.06472        8.26894       -3.56874
H         13.69457        7.26381       -1.97226
H         12.97887        5.38979       -0.49468
H         10.67291        4.51138       -0.62402
H         10.89405        3.62177       -3.97268
H         12.33802        3.83542       -5.97351
H          9.50468        6.05762       -8.00614
H          7.87954        5.89482       -6.11585
