75

C         -1.04822       -1.32774        9.64851
C          0.43525       -1.22844       10.00941
C          1.34733       -1.96914        9.02656
C          2.83625       -1.86136        9.36926
C          3.74558       -2.59223        8.37712
C          5.23836       -2.46034        8.69710
C          6.13579       -3.18187        7.68742
C          7.63408       -3.02267        7.97092
C          8.50311       -3.73800        6.92732
C          9.98459       -3.52668        7.16777
O         10.72322       -4.21937        6.10594
C         12.03484       -3.92374        5.98388
S         13.11544       -4.98930        7.23172
C         12.67943       -6.69322        6.78832
C         12.69052       -7.03498        5.29147
O         13.14918       -6.31316        4.42599
O         12.12746       -8.22606        5.12928
C         12.04742       -8.75831        3.75021
C         13.30433       -9.52025        3.36859
C         13.13496      -10.20399        2.00471
C         14.39393      -10.94538        1.54257
C         14.20104      -11.66874        0.20627
C         15.46831      -12.35077       -0.31640
C         15.25859      -13.07993       -1.64736
C         16.52684      -13.75114       -2.17676
C         14.82363       -4.74960        6.55700
C         15.84116       -5.10961        7.58369
C         16.66388       -6.16777        7.56196
Br        16.66574       -7.47483        6.20191
Br        15.97248       -3.89619        9.04794
H         -1.67530       -0.78319       10.36740
H         -1.38669       -2.37443        9.63765
H         -1.24379       -0.90735        8.65080
H          0.59626       -1.62791       11.02498
H          0.73463       -0.16748       10.05040
H          1.17873       -1.57572        8.00843
H          1.05568       -3.03378        8.99092
H          3.00771       -2.25928       10.38486
H          3.12326       -0.79582        9.40885
H          3.55830       -2.20527        7.36009
H          3.47111       -3.66140        8.34948
H          5.43371       -2.85290        9.71033
H          5.51017       -1.39058        8.72730
H          5.91967       -2.80265        6.67367
H          5.87998       -4.25555        7.67161
H          7.86283       -3.41045        8.97854
H          7.88727       -1.94850        7.98870
H          8.25498       -3.36930        5.91954
H          8.28608       -4.81807        6.93465
H         10.30378       -3.93585        8.14213
H         10.25512       -2.45788        7.12902
H         12.32430       -2.90098        6.28172
H         12.41503       -4.22373        5.00085
H         11.68261       -6.86229        7.21908
H         13.38428       -7.33670        7.33634
H         11.85391       -7.91526        3.07442
H         11.16858       -9.41330        3.78916
H         13.51884      -10.27614        4.14071
H         14.15953       -8.82668        3.33600
H         12.85940       -9.45165        1.24604
H         12.29110      -10.91298        2.05536
H         14.69554      -11.67389        2.31494
H         15.22731      -10.22662        1.45491
H         13.84057      -10.94786       -0.54844
H         13.39974      -12.42057        0.31409
H         15.84077      -13.06669        0.43757
H         16.26534      -11.59581       -0.43709
H         14.88068      -12.36262       -2.39548
H         14.46394      -13.83465       -1.52418
H         17.32774      -13.01539       -2.34272
H         16.34226      -14.26267       -3.13110
H         16.90753      -14.49982       -1.46610
H         14.86248       -3.67679        6.31638
H         14.90109       -5.34263        5.63717
H         17.41312       -6.34595        8.33062
