50

C          1.36335       -1.76676       -1.85851
C          2.79115       -1.41376       -2.28806
C          3.46119       -0.51815       -1.25897
O          4.87489       -0.28114       -1.61586
C          5.14907        0.78882       -2.35313
O          4.36775        1.63339       -2.75043
C          6.66472        0.85606       -2.63085
C          6.96416        1.61590       -3.87210
N          7.44670        1.02717       -4.97918
N          7.52469        1.94466       -5.92764
N          7.11169        3.08444       -5.43489
N          6.75502        2.92963       -4.13007
C          6.22832        4.04797       -3.30857
C          6.81409        4.13711       -1.89258
C          8.34623        4.11460       -1.73007
C          9.08991        5.12226       -2.59993
O          8.81499        5.30342       -3.77031
O         10.11384        5.79816       -2.04324
C          7.01743        4.33671       -6.22245
C          7.32586        4.08454       -7.69793
C          7.18761        5.39818       -8.48260
C          7.40608        5.16039       -9.97969
S          7.17903        6.72271      -10.87097
O          5.80253        7.13986      -10.73564
O          8.27361        7.60930      -10.55426
Cl         7.44741        6.06018      -12.81916
H          0.88806       -2.41428       -2.60548
H          0.73979       -0.86833       -1.75015
H          1.35408       -2.30377       -0.89964
H          2.77774       -0.90023       -3.26141
H          3.38876       -2.32980       -2.40825
H          3.52276       -1.00065       -0.27578
H          2.96051        0.45451       -1.16808
H          7.07619       -0.15295       -2.75499
H          7.14957        1.29818       -1.74780
H          5.14180        3.90133       -3.24854
H          6.45871        4.95962       -3.86439
H          6.38079        3.35349       -1.25753
H          6.41948        5.08361       -1.49262
H          8.75665        3.12747       -2.00332
H          8.57714        4.25218       -0.66382
H         10.22551        5.56968       -1.10316
H          7.72058        5.04841       -5.76553
H          5.99082        4.71207       -6.09793
H          6.63293        3.32826       -8.09562
H          8.34158        3.67889       -7.80405
H          7.91693        6.13708       -8.11796
H          6.18435        5.82626       -8.33225
H          6.67230        4.46378      -10.40723
H          8.42300        4.82074      -10.21715
