75

C          1.64689        0.80928       -0.60736
C          3.16123        0.58848       -0.60201
C          3.58558       -0.73673       -1.24759
C          5.10008       -0.96406       -1.19371
C          5.53239       -2.27308       -1.83194
O          6.95494       -2.39694       -1.67239
C          7.48116       -3.60072       -2.15479
C          8.96351       -3.68482       -1.76314
C          9.13841       -3.42076       -0.26740
O         10.52979       -3.57613        0.03563
C         10.82725       -3.56565        1.40986
C         10.63040       -4.75743        2.11460
C         10.93111       -4.86231        3.47590
C         10.71022       -6.14519        4.23460
C         11.45073       -3.72191        4.10679
C         11.65197       -2.54279        3.39517
C         11.34688       -2.41412        2.02747
C         11.60746       -1.07276        1.35034
C         12.60477       -1.16283        0.18322
C         10.32951       -0.32246        0.92769
O          9.78252       -2.68402       -2.40053
C         10.06329       -2.85605       -3.78041
C         10.76178       -4.23000       -4.07346
N         10.86340       -4.93089       -2.72806
C          9.50821       -5.09706       -2.11748
C         12.08190       -4.15428       -4.79350
C         12.10555       -4.41734       -6.16925
C         13.27829       -4.28481       -6.91327
C         14.45256       -3.89445       -6.27015
C         14.46433       -3.64311       -4.89564
C         13.28450       -3.76970       -4.15473
O         13.20482       -3.55971       -2.79812
C         14.42117       -3.28115       -2.07943
H          1.38214        1.77042       -0.14678
H          1.12566        0.01871       -0.04707
H          1.24408        0.80986       -1.63113
H          3.53557        0.61992        0.43529
H          3.65897        1.42087       -1.12766
H          3.24060       -0.75796       -2.29605
H          3.06811       -1.56962       -0.74005
H          5.44144       -0.95993       -0.14566
H          5.62468       -0.13608       -1.69718
H          5.27531       -2.29887       -2.90887
H          5.03370       -3.13538       -1.34748
H          7.37651       -3.68648       -3.25931
H          6.95473       -4.47923       -1.72092
H          8.52770       -4.14257        0.30434
H          8.78924       -2.40805       -0.02974
H         10.23403       -5.62372        1.57803
H         10.27749       -6.92538        3.59579
H         10.03056       -5.98954        5.08484
H         11.65443       -6.53124        4.64595
H         11.70250       -3.75932        5.16832
H         12.06152       -1.67338        3.91395
H         12.08514       -0.45813        2.13048
H         12.18048       -1.73188       -0.65508
H         13.53949       -1.64263        0.50592
H         12.85460       -0.15670       -0.18286
H          9.90137       -0.73133        0.00262
H         10.56390        0.73331        0.73166
H          9.56350       -0.35555        1.71393
H         10.74222       -2.03551       -4.03821
H          9.15960       -2.76802       -4.40651
H         10.08723       -4.86576       -4.66447
H         11.46418       -4.34790       -2.11076
H         11.33569       -5.83421       -2.85123
H          9.60944       -5.71981       -1.22189
H          8.88232       -5.61844       -2.85532
H         11.18207       -4.72433       -6.66497
H         13.27368       -4.48828       -7.98307
H         15.37745       -3.78526       -6.83706
H         15.39167       -3.34384       -4.41134
H         15.17066       -4.06493       -2.26103
H         14.14068       -3.27255       -1.02332
H         14.82359       -2.29689       -2.35825
