60

N          0.20797       -1.65784       -0.66057
C          1.54371       -1.09817       -0.87112
C          2.61435       -2.04398       -0.32272
C          4.03920       -1.56657       -0.62209
C          5.09555       -2.47111        0.02779
C          6.57325       -2.37793       -0.40504
N          6.76669       -2.71516       -1.83434
C          6.89565       -1.75675       -2.75658
N          7.06711       -2.09510       -4.05232
N          6.83824       -0.46158       -2.41494
C          6.85246        0.05017       -1.02635
C          7.36235       -1.08494       -0.10489
C          8.90611       -1.28392       -0.24221
C          9.40005       -2.69861        0.06778
O          9.24579       -3.62380       -0.74447
N          9.98072       -2.87024        1.27883
C         10.56126       -4.14098        1.71708
C         12.05160       -4.26671        1.38071
C         12.65339       -5.58741        1.87383
C         14.13750       -5.72814        1.52786
C          7.63824        1.37877       -1.00433
C          7.13542        2.48840       -0.05624
C          7.15401        2.12249        1.44262
F          8.36548        1.60316        1.81452
F          6.91029        3.18324        2.22108
F          6.20914        1.17698        1.72822
O          7.85265        3.68389       -0.28255
H         -0.50272       -1.08394       -1.11385
H         -0.02555       -1.67737        0.33348
H          1.69270       -0.09098       -0.42562
H          1.68606       -0.98118       -1.95846
H          2.45196       -3.04621       -0.75012
H          2.48380       -2.14802        0.76870
H          4.14035       -0.53062       -0.25887
H          4.17590       -1.53786       -1.71703
H          4.80235       -3.51918       -0.14571
H          5.07459       -2.33648        1.12150
H          7.07905       -3.19143        0.12785
H          7.33428       -3.55130       -1.98563
H          6.99708       -3.06514       -4.33359
H          7.46727       -1.44389       -4.71551
H          6.69648        0.21528       -3.15855
H          5.81097        0.26615       -0.74944
H          7.13421       -0.80052        0.92821
H          9.41367       -0.54672        0.39437
H          9.22710       -1.08973       -1.27665
H         10.13734       -2.05076        1.85633
H          9.99001       -4.93996        1.22542
H         10.39723       -4.22619        2.80143
H         12.59961       -3.41971        1.82778
H         12.17497       -4.18162        0.28888
H         12.08981       -6.42899        1.43790
H         12.51914       -5.66448        2.96589
H         14.29909       -5.70263        0.44029
H         14.54432       -6.67708        1.90124
H         14.73105       -4.91547        1.97164
H          7.57633        1.84421       -1.99982
H          8.70816        1.20168       -0.82445
H          6.08420        2.72762       -0.28524
H          8.78269        3.56257       -0.02453
