90

C          2.48211       -5.10023       -4.81039
C          3.17205       -5.07241       -3.44399
C          3.21863       -3.66907       -2.82996
C          3.86394       -3.60101       -1.43968
N          5.26401       -4.04921       -1.42124
C          6.28862       -3.25642       -1.78221
O          6.13097       -2.08760       -2.17706
C          7.70118       -3.85716       -1.65990
N          8.52223       -3.69839       -2.86843
C          9.19446       -2.52243       -3.04661
N         10.31998       -2.48302       -3.78792
C         11.42297       -3.45028       -3.73747
C         12.60254       -2.82877       -2.96153
O         13.70264       -3.70435       -2.81699
C         14.48614       -3.99161       -3.98705
C         15.01664       -2.78519       -4.74320
O         13.97553       -2.29376       -5.59626
C         14.30342       -1.33246       -6.53295
C         15.51431       -0.63152       -6.56070
C         15.74470        0.29890       -7.57575
C         14.80696        0.55671       -8.58741
C         13.58753       -0.13491       -8.50838
C         13.33332       -1.06625       -7.50326
C         15.12666        1.55352       -9.71176
C         16.47214        1.20620      -10.43102
C         16.73158       -0.09646      -11.24838
C         15.91252       -0.16361      -12.55387
C         18.22554       -0.04267      -11.63829
C         16.49198       -1.38588      -10.43961
C         13.96331        1.69427      -10.71092
C         15.33246        2.94875       -9.06469
N          8.73339       -1.41314       -2.46416
C          8.11531       -4.56822       -4.02496
C          7.99013       -3.78164       -5.34678
O          7.42313       -2.48924       -5.21198
C          8.95851       -5.83606       -4.23295
C          9.14414       -6.71867       -2.99849
H          2.46704       -6.11393       -5.23145
H          2.99355       -4.44580       -5.53203
H          1.44074       -4.75608       -4.73648
H          4.19863       -5.46674       -3.54681
H          2.65121       -5.75687       -2.75288
H          2.19506       -3.27333       -2.73060
H          3.74607       -2.97415       -3.50333
H          3.31894       -4.23289       -0.72472
H          3.84584       -2.56918       -1.06440
H          5.46301       -5.00474       -1.14611
H          7.66262       -4.92760       -1.41982
H          8.20634       -3.35269       -0.82379
H         10.57297       -1.55951       -4.13465
H         11.72174       -3.71179       -4.76158
H         11.07658       -4.35295       -3.22430
H         12.27491       -2.60408       -1.93475
H         12.89227       -1.87770       -3.44438
H         13.93114       -4.63867       -4.68995
H         15.33473       -4.56961       -3.59828
H         15.88225       -3.09909       -5.35252
H         15.35793       -2.00560       -4.03815
H         16.28463       -0.80040       -5.80938
H         16.70375        0.81851       -7.57812
H         12.81672        0.03078       -9.25967
H         12.39158       -1.61723       -7.47905
H         17.26346        1.25774       -9.66468
H         16.67953        2.05118      -11.11034
H         15.97923        0.77569      -13.12210
H         14.85122       -0.37522      -12.37372
H         16.29707       -0.96871      -13.19713
H         18.45034        0.84984      -12.24109
H         18.50537       -0.92544      -12.23131
H         18.87092       -0.01719      -10.74766
H         15.43650       -1.51808      -10.16882
H         17.07747       -1.39610       -9.50896
H         16.79618       -2.26014      -11.03464
H         13.65436        0.73946      -11.15191
H         14.26044        2.35494      -11.53658
H         13.08257        2.14526      -10.23067
H         16.18563        2.95794       -8.37281
H         14.43751        3.24878       -8.50154
H         15.52102        3.70685       -9.83863
H          7.70490       -1.36466       -2.29824
H          9.32623       -0.59647       -2.36964
H          7.09546       -4.88738       -3.74390
H          7.41756       -4.41500       -6.04671
H          8.98082       -3.62248       -5.79462
H          6.50799       -2.55818       -4.89285
H          9.93706       -5.56026       -4.65173
H          8.45579       -6.41638       -5.02303
H          9.67834       -6.19539       -2.19206
H          9.73220       -7.61034       -3.24938
H          8.18097       -7.06935       -2.59888
