44

C          3.06520        4.82258       -1.78764
C          4.59408        4.79059       -1.85349
C          5.17624        3.40923       -1.53152
C          6.70643        3.39304       -1.57474
N          7.25386        2.07268       -1.24922
C          8.01971        1.35428       -2.09709
O          8.40648        1.72103       -3.20291
C          8.36240       -0.07729       -1.59573
N          9.43667       -0.61992       -2.40357
N         10.72895       -0.38640       -1.96221
C         11.49339       -0.60093       -2.98319
N         10.74412       -0.95142       -4.10779
C          9.40760       -0.93312       -3.72227
N          8.41500       -1.24594       -4.54657
Si         6.61969       -1.61647       -4.43787
C          6.28200       -2.17899       -6.18699
C          6.41760       -2.99898       -3.19292
C          5.64345       -0.07718       -4.02198
C         11.18016       -1.26523       -5.34561
C         11.54192       -1.55079       -6.46168
H          2.68056        5.82605       -2.01069
H          2.70018        4.54184       -0.78875
H          2.61728        4.12763       -2.51331
H          5.00997        5.53235       -1.15142
H          4.92934        5.09969       -2.85718
H          4.78885        2.66369       -2.24617
H          4.83245        3.09177       -0.53105
H          7.12281        4.13205       -0.87173
H          7.08150        3.64341       -2.57553
H          7.02496        1.67726       -0.34160
H          7.47839       -0.72440       -1.66002
H          8.71998       -0.08721       -0.55905
H         12.57601       -0.53206       -2.99532
H          8.77565       -1.40320       -5.49184
H          6.87742       -3.05993       -6.46444
H          6.47310       -1.37898       -6.91652
H          5.22288       -2.45743       -6.28145
H          6.99613       -3.88266       -3.49525
H          5.35834       -3.29245       -3.14785
H          6.72299       -2.72906       -2.17299
H          6.02537        0.79438       -4.56869
H          5.62789        0.16692       -2.95269
H          4.60097       -0.24738       -4.33020
H         11.88179       -1.79803       -7.44754
