68

C          3.57503       -4.04611       -0.54186
C          4.04341       -2.61688       -0.25747
C          4.91108       -2.51199        1.00166
C          5.40301       -1.08841        1.28629
C          6.23886       -1.00222        2.57176
C          6.73892        0.41366        2.82122
N          7.46579        0.55665        4.14799
C          7.68781        2.00100        4.54072
C          8.98648        2.35496        3.82776
C          9.85196        1.10591        4.08386
C          8.87934       -0.09144        4.18202
C          9.04262       -0.91619        5.45993
C          8.17666       -2.18538        5.59875
C          8.61276       -3.29540        4.63253
C          8.20204       -2.68024        7.05210
C          9.57779        3.69842        4.26877
C         10.81990        4.13682        3.46952
P         10.52123        4.19470        1.65614
O          9.10475        4.00952        1.25350
O         11.20511        5.59216        1.27079
C         10.94277        6.17761       -0.05059
C         11.94720        7.28488       -0.28011
O         11.42079        3.02824        0.99825
C         12.87962        3.05332        1.04030
C         13.44733        3.28808       -0.34607
H          2.95320       -4.08866       -1.44564
H          2.97688       -4.44515        0.29058
H          4.42736       -4.72470       -0.69377
H          3.16765       -1.95472       -0.15120
H          4.60985       -2.23360       -1.12253
H          5.78052       -3.18534        0.90287
H          4.33794       -2.88147        1.87024
H          4.53877       -0.40706        1.36411
H          6.00239       -0.72750        0.43346
H          7.08258       -1.70576        2.50218
H          5.62362       -1.33320        3.42711
H          5.89766        1.11987        2.86067
H          7.42697        0.75699        2.03738
H          6.88766        0.08108        4.85351
H          7.79132        2.03414        5.63600
H          6.81805        2.59805        4.24303
H          8.76909        2.44651        2.75157
H         10.39952        1.20870        5.03404
H         10.59048        0.94819        3.28857
H          8.93066       -0.73054        3.29238
H          8.87599       -0.25065        6.32617
H         10.10615       -1.20078        5.51801
H          7.12294       -1.92980        5.36609
H          9.63119       -3.63710        4.87125
H          8.60934       -2.97590        3.58071
H          7.94500       -4.16364        4.70945
H          9.22448       -2.94821        7.35792
H          7.57530       -3.57328        7.17473
H          7.83417       -1.91400        7.74932
H          9.84055        3.66184        5.33945
H          8.80070        4.46932        4.15729
H         11.67351        3.47090        3.66515
H         11.12600        5.14286        3.78448
H          9.90903        6.54958       -0.04963
H         11.02242        5.38951       -0.81470
H         11.86731        8.05640        0.49660
H         11.75496        7.75754       -1.25302
H         12.97546        6.89937       -0.28374
H         13.18213        2.07147        1.43269
H         13.22575        3.82717        1.74281
H         13.05633        2.54849       -1.05693
H         14.54223        3.19587       -0.32087
H         13.20012        4.29134       -0.71493
