31

C          1.36083        0.26128        1.25972
C          2.81066       -0.17240        1.00965
C          2.89801       -1.67981        0.84145
O          4.27907       -2.10231        0.49559
C          5.08754       -2.41399        1.48567
O          4.85075       -2.42263        2.68538
C          6.48690       -2.79278        0.98227
N          7.16273       -3.43142        2.15097
N          6.80429       -4.88650        2.18788
O          7.74423       -5.45521        1.30090
O          7.17963       -5.26729        3.49632
C          8.63587       -3.11087        2.32058
O          8.62360       -1.76259        2.66017
C          9.93758       -1.24334        2.95445
H          1.30252        1.35051        1.37344
H          0.95520       -0.19028        2.17593
H          0.70495       -0.02064        0.42405
H          3.44726        0.13885        1.85200
H          3.20216        0.31418        0.10363
H          2.31045       -2.03504       -0.01359
H          2.59934       -2.21875        1.74983
H          7.05110       -1.88736        0.72110
H          6.47603       -3.48200        0.13224
H          6.62060       -3.04580        2.97001
H          7.24622       -6.18764        0.89091
H          6.36840       -5.68825        3.84096
H          9.14830       -3.32870        1.36879
H          9.01588       -3.76510        3.12273
H          9.79036       -0.18967        3.20815
H         10.59831       -1.32586        2.07741
H         10.38210       -1.77289        3.81133
