84

C          0.74682       -0.09419       -0.12520
C          2.25932       -0.03042       -0.35369
C          2.85850        1.35283       -0.07486
C          4.36734        1.43722       -0.32855
C          4.95842        2.82393       -0.05241
C          6.45990        2.92769       -0.34151
C          7.04432        4.31417       -0.04902
C          8.53597        4.43945       -0.37798
C          9.12188        5.81830       -0.05304
C         10.60632        5.95568       -0.40938
C         11.20216        7.32077       -0.04544
C         12.68638        7.45297       -0.40567
C         13.30078        8.79595        0.00966
C         14.79614        8.88858       -0.31639
C         15.41368       10.20917        0.15631
N         16.87405       10.24613       -0.07236
C         17.77789        9.86309        0.83775
N         19.00128        9.94864        0.29088
C         18.86797       10.38286       -1.01352
C         17.53088       10.58188       -1.25761
C         16.84553       11.10779       -2.48665
C         16.89503       12.64543       -2.50262
O         16.29592       13.11127       -1.29221
C         17.43179       10.51121       -3.78346
C         17.21363        9.00310       -3.92040
C         20.23366        9.47800        0.92628
O         20.29922        8.10066        0.70256
C         21.46844        7.48148        1.28963
C         21.38127        5.98599        1.03895
C         22.56191        5.21328        1.64248
C         22.45495        3.70353        1.41043
H          0.34837       -1.09683       -0.33321
H          0.21441        0.61612       -0.77538
H          0.48874        0.15577        0.91494
H          2.48663       -0.32009       -1.39381
H          2.76104       -0.77873        0.28313
H          2.64678        1.63641        0.97149
H          2.34244        2.10395       -0.69898
H          4.57586        1.15407       -1.37557
H          4.88628        0.68746        0.29450
H          4.76999        3.09653        1.00113
H          4.42032        3.57507       -0.65728
H          6.64511        2.66880       -1.39907
H          7.00104        2.17026        0.25265
H          6.88363        4.55891        1.01583
H          6.48175        5.07392       -0.61984
H          8.69230        4.21867       -1.44868
H          9.09852        3.66568        0.17387
H          8.98404        6.02743        1.02249
H          8.54563        6.59461       -0.58668
H         10.74106        5.77265       -1.49010
H         11.17860        5.16259        0.10398
H         11.07372        7.49560        1.03719
H         10.62964        8.11839       -0.55024
H         12.81475        7.31208       -1.49303
H         13.25052        6.63405        0.07427
H         13.15270        8.94424        1.09353
H         12.76052        9.62010       -0.48699
H         14.95497        8.77333       -1.40097
H         15.33360        8.05385        0.16358
H         15.26140       10.35115        1.23516
H         14.98476       11.08471       -0.34667
H         17.56135        9.52480        1.84450
H         19.72914       10.51368       -1.65715
H         15.78270       10.82234       -2.43377
H         16.34516       13.00765       -3.38817
H         17.94455       12.98348       -2.58504
H         16.28569       14.08074       -1.29873
H         18.50575       10.75084       -3.85164
H         16.95884       11.03065       -4.63058
H         17.68707        8.44065       -3.10289
H         17.63765        8.63337       -4.86235
H         16.14225        8.75508       -3.92253
H         20.18557        9.73184        2.00234
H         21.07625       10.03026        0.47043
H         21.49166        7.70266        2.37355
H         22.37867        7.91390        0.83386
H         21.33182        5.80975       -0.04756
H         20.43468        5.61340        1.46293
H         22.61925        5.41597        2.72489
H         23.50535        5.58685        1.21114
H         21.54365        3.29199        1.86829
H         23.31289        3.17398        1.84441
H         22.42489        3.46452        0.33739
