79

C         16.92183       -0.61014       -7.00597
C         16.07454       -0.64826       -5.73255
C         16.24173        0.59613       -4.85449
C         15.39159        0.56484       -3.58078
C         15.57340        1.79642       -2.68848
C         14.72478        1.75869       -1.41322
C         14.91739        2.98570       -0.51717
C         14.08904        2.94095        0.77212
C         14.30606        4.17669        1.65392
C         13.54277        4.10641        2.96546
O         13.81719        5.31480        3.71803
C         13.27625        5.29198        5.02592
N         13.56177        6.56277        5.68061
C         12.41833        7.43989        6.00071
C         12.87734        8.75948        6.60865
C         14.04195        8.53795        7.58074
N         15.13809        7.88641        6.83087
C         14.84324        6.87381        5.97945
N         15.84268        6.17246        5.42455
C         16.46874        8.50527        6.82277
C         17.55608        7.71859        7.56755
O         17.66366        6.50164        7.49312
O         18.36696        8.53435        8.23141
C         19.55524        7.93247        8.87337
C         20.70484        7.79060        7.88953
C         21.97296        7.27248        8.58193
C         23.13273        7.04531        7.60518
C         24.40489        6.55156        8.29635
C         13.68629        7.73825        8.85927
C         12.74206        8.46541        9.76599
C         11.50000        8.12884       10.12733
Br        10.61482        6.56724        9.51373
Br        13.44146       10.08041       10.52795
H         16.79266       -1.52292       -7.60340
H         17.99209       -0.51630       -6.76906
H         16.64807        0.24517       -7.64138
H         16.33672       -1.54288       -5.14264
H         15.01056       -0.76346       -5.99944
H         15.98506        1.49457       -5.44333
H         17.30613        0.70755       -4.58172
H         15.63846       -0.34244       -3.00179
H         14.32681        0.46760       -3.85594
H         15.32540        2.70486       -3.26489
H         16.63860        1.89321       -2.41421
H         14.97028        0.84734       -0.84025
H         13.65895        1.66809       -1.68577
H         14.65975        3.89723       -1.08397
H         15.98602        3.08182       -0.25667
H         14.35016        2.03076        1.33937
H         13.01919        2.84914        0.51908
H         14.00022        5.08496        1.11098
H         15.38108        4.28608        1.87440
H         13.85647        3.22657        3.55850
H         12.45353        4.03073        2.79499
H         13.71934        4.46434        5.61438
H         12.17993        5.16868        5.00855
H         11.76207        6.89894        6.70029
H         11.85056        7.61679        5.07556
H         12.03138        9.23267        7.12387
H         13.21167        9.45040        5.82168
H         14.42627        9.51720        7.89618
H         16.70388        6.06224        5.97676
H         15.62261        5.59780        4.61198
H         16.38420        9.51175        7.24646
H         16.81826        8.60658        5.78090
H         19.25802        6.96560        9.29963
H         19.78903        8.63835        9.67938
H         20.90668        8.76801        7.42312
H         20.41416        7.09598        7.08587
H         21.74926        6.32620        9.10362
H         22.28564        7.98763        9.36191
H         23.34374        7.98432        7.06686
H         22.81987        6.31671        6.83862
H         24.76935        7.28490        9.03069
H         25.21118        6.38034        7.57110
H         24.22954        5.60587        8.82999
H         14.62020        7.53596        9.40648
H         13.24431        6.76486        8.59978
H         10.89272        8.70969       10.81704
