78

C          0.91681        4.48323      -12.27469
C          2.44041        4.57763      -12.16980
C          2.93942        4.74892      -10.73142
C          4.46412        4.83835      -10.62142
C          4.97349        5.00630       -9.18658
C          6.50044        5.07955       -9.09253
C          7.02898        5.23947       -7.66372
C          8.55830        5.28772       -7.59177
C          9.10857        5.45245       -6.17198
C         10.64043        5.46250       -6.12069
C         11.19734        5.63624       -4.70224
C         12.72578        5.46499       -4.58275
C         13.46498        6.59361       -5.29501
N         14.99498        6.50585       -5.28354
C         15.50057        5.20174       -5.87316
C         14.92435        4.81833       -7.23245
C         15.62790        3.56796       -7.78058
C         15.05832        3.10974       -9.12780
C         15.74861        1.85610       -9.66764
C         15.51174        6.66182       -3.84887
O         15.28273        7.99188       -3.54907
C         15.77100        8.72702       -4.68514
C         15.55263        7.81383       -5.93066
C         16.82522        7.66098       -6.75860
C         17.16589        9.00563       -7.44028
C         18.48561        8.92740       -8.21139
O         19.49871        8.47926       -7.31664
O         16.10507        9.44107       -8.28946
H          0.59078        4.36201      -13.31678
H          0.43389        5.38859      -11.87782
H          0.53120        3.62596      -11.70310
H          2.80132        5.42256      -12.78047
H          2.89742        3.67285      -12.60520
H          2.57747        3.90501      -10.11798
H          2.48644        5.65635      -10.29450
H          4.82426        5.68216      -11.23615
H          4.91341        3.93062      -11.06169
H          4.60967        4.16659       -8.56899
H          4.53479        5.91885       -8.74645
H          6.86266        5.92044       -9.71001
H          6.93438        4.16752       -9.53928
H          6.66061        4.40567       -7.04117
H          6.61144        6.15914       -7.21824
H          8.92551        6.11643       -8.22280
H          8.96956        4.36350       -8.03514
H          8.73128        4.63569       -5.53300
H          8.72070        6.38749       -5.73258
H         11.00820        6.26506       -6.78373
H         11.01823        4.51441       -6.54450
H         10.73240        4.88839       -4.04180
H         10.90229        6.61909       -4.29819
H         13.00304        4.48529       -5.00138
H         12.98990        5.44842       -3.51480
H         13.22449        7.55859       -4.83010
H         13.18728        6.64753       -6.35392
H         15.26655        4.42685       -5.12969
H         16.59343        5.28858       -5.91867
H         15.03260        5.64585       -7.95098
H         13.84630        4.61540       -7.14962
H         15.53867        2.74642       -7.04906
H         16.70819        3.76716       -7.88641
H         15.15236        3.93029       -9.85871
H         13.97775        2.92065       -9.01797
H         16.82580        2.02351       -9.81217
H         15.32591        1.55716      -10.63528
H         15.63248        1.00819       -8.97738
H         16.58296        6.38861       -3.87685
H         14.95931        6.01419       -3.16082
H         16.84423        8.94194       -4.55431
H         15.21460        9.66953       -4.73309
H         14.75020        8.19630       -6.57147
H         16.70343        6.91039       -7.55308
H         17.68267        7.36365       -6.13575
H         17.26927        9.79219       -6.67548
H         18.70555        9.92700       -8.62010
H         18.36444        8.22540       -9.06361
H         20.36702        8.66258       -7.70614
H         16.18789        8.99513       -9.14925
