49

Br         2.02799        1.39366       -1.55996
C          3.80916        1.42915       -0.69127
C          3.88902        2.50521        0.37511
C          3.20503        2.19825        1.72219
C          1.70054        2.08889        1.67916
C          1.01781        0.96009        2.11783
C         -0.39291        0.94325        2.05249
C         -1.19416       -0.26798        2.41765
C         -0.83841       -1.41333        1.43239
O          0.34701       -1.54189        1.10077
N         -1.83798       -2.21470        0.98620
C         -3.24958       -2.10934        1.39625
C         -3.57273       -2.71085        2.76659
C         -1.48430       -3.28870        0.03606
C         -1.50334       -4.69055        0.64646
N         -1.10230        1.96666        1.57562
N         -0.42308        3.05314        1.19012
C          0.91657        3.16269        1.24333
C         -1.23424        4.13943        0.68279
C         -2.42084        4.45931        1.34711
C         -3.18986        5.51703        0.86482
C         -2.77989        6.22877       -0.26780
C         -1.59834        5.88147       -0.92947
C         -0.81277        4.82905       -0.45824
Br         5.81725        2.75195        0.75787
H          4.50546        1.62651       -1.50941
H          3.97010        0.42200       -0.29206
H          3.57744        3.47474       -0.03230
H          3.47763        2.99863        2.42711
H          3.61957        1.26603        2.13012
H          1.54749        0.08754        2.49417
H         -2.25513       -0.00253        2.43551
H         -0.91044       -0.62107        3.42104
H         -3.82733       -2.62661        0.61834
H         -3.56614       -1.05717        1.34973
H         -3.29388       -3.77027        2.81647
H         -4.65156       -2.63298        2.95951
H         -3.05124       -2.18872        3.58013
H         -0.48369       -3.05127       -0.34101
H         -2.19117       -3.22331       -0.80549
H         -0.84062       -4.74893        1.52010
H         -1.14918       -5.41666       -0.09720
H         -2.51203       -5.00015        0.95133
H          1.32449        4.12691        0.94798
H         -2.72158        3.89529        2.22875
H         -4.11071        5.78948        1.38026
H         -3.38896        7.05248       -0.64027
H         -1.29271        6.41856       -1.82707
H          0.08446        4.52091       -0.99689
