79

C          0.38454        0.49999       -0.11573
C          1.90485        0.32376       -0.14775
C          2.43554       -0.57974        0.97106
C          3.95875       -0.74306        0.96311
C          4.49109       -1.60740        2.11091
C          6.01842       -1.72579        2.13369
C          6.55876       -2.51424        3.33160
C          8.08895       -2.56939        3.38324
C          8.64534       -3.24070        4.64379
C         10.17587       -3.22178        4.70680
C         10.75715       -3.78001        6.01079
C         12.28672       -3.69380        6.05203
C         12.90890       -4.16153        7.37326
C         14.43399       -4.02569        7.34769
C         15.11231       -4.47020        8.67242
C         16.58123       -4.36430        8.53260
N         17.37504       -5.31836        7.99842
N         18.60105       -4.85751        7.91062
N         18.59735       -3.60741        8.37615
N         17.33216       -3.25922        8.76966
C         16.96621       -1.98700        9.40491
C         17.06274       -2.02915       10.92342
O         16.44896       -3.14771       11.56368
C         17.88163       -2.98081       11.68242
C         19.71751       -2.78165        8.39458
N         19.92186       -1.73181        9.13792
N         21.15871       -1.25385        8.77657
C         21.62411       -2.06584        7.84047
O         20.72674       -3.08491        7.54290
S         23.13613       -1.93225        7.04715
C         23.06823       -3.27980        5.79896
C         24.31929       -3.15314        4.92583
C         24.37785       -4.25464        3.85654
C         25.60596       -4.12226        2.95226
H          0.03676        1.15947       -0.92272
H          0.05420        0.93946        0.83743
H         -0.13259       -0.46454       -0.22918
H          2.39133        1.31147       -0.07468
H          2.20877       -0.08947       -1.12447
H          1.95912       -1.57321        0.89460
H          2.11953       -0.17027        1.94714
H          4.42995        0.25470        1.01461
H          4.27692       -1.17593       -0.00175
H          4.04397       -2.61530        2.05158
H          4.14795       -1.18284        3.07113
H          6.45791       -0.71243        2.14427
H          6.36611       -2.19401        1.19600
H          6.15116       -3.54010        3.31565
H          6.18264       -2.05527        4.26316
H          8.48648       -1.54051        3.32247
H          8.47008       -3.09141        2.48798
H          8.28397       -4.28207        4.70248
H          8.23914       -2.72889        5.53405
H         10.52608       -2.18223        4.57694
H         10.58641       -3.78593        3.85110
H         10.44097       -4.82888        6.14351
H         10.33504       -3.22366        6.86572
H         12.59136       -2.64939        5.86135
H         12.70789       -4.28759        5.22229
H         12.63620       -5.21225        7.56753
H         12.49559       -3.57396        8.21058
H         14.70725       -2.97757        7.13429
H         14.84808       -4.62732        6.52324
H         14.88228       -5.52466        8.87993
H         14.75926       -3.88049        9.52867
H         15.93232       -1.78459        9.09441
H         17.61980       -1.20116        9.00561
H         16.84414       -1.05040       11.36716
H         18.48089       -3.74092       11.17294
H         18.23737       -2.69590       12.67544
H         22.15019       -3.15770        5.20860
H         23.03504       -4.24146        6.32860
H         25.22144       -3.20556        5.55750
H         24.33050       -2.16411        4.43980
H         23.46099       -4.21732        3.24515
H         24.38087       -5.24084        4.34896
H         25.60958       -3.15991        2.42045
H         25.62604       -4.91911        2.19786
H         26.53865       -4.18784        3.53064
