99

C          1.86655       16.11677        0.90183
C          3.35334       15.76269        0.82127
C          3.63265       14.44905        0.08187
C          5.12227       14.10166        0.00798
C          5.43219       12.79105       -0.72321
C          6.93366       12.49975       -0.79914
C          7.30537       11.19690       -1.51540
C          8.82205       11.01843       -1.63046
C          9.28186        9.73043       -2.32149
C         10.80462        9.68713       -2.47517
C         11.36623        8.43010       -3.14512
C         12.88164        8.53295       -3.34205
C         13.49967        7.37281       -4.12749
C         15.04598        7.40294       -4.17949
C         15.60927        6.26535       -5.03246
N         15.36239        6.51293       -6.50532
C         15.84215        7.85754       -7.04592
C         15.33145        8.99806       -6.14808
C         15.64716        8.73812       -4.66701
C         15.82666       10.37594       -6.61935
C         15.32991       10.79646       -8.00625
O         13.89288       11.01715       -7.97030
C         13.08064       10.04113       -8.44362
O         13.45967        8.95082       -8.83856
C         11.63581       10.46734       -8.35272
S         10.99038       10.11155       -6.66988
C         15.95960       12.12061       -8.43396
O         15.40155       12.61513       -9.66348
C         15.74629       11.94042      -10.79655
O         16.54766       11.02725      -10.82632
C         14.96183       12.45514      -11.97962
S         13.29450       11.68928      -12.01219
C         17.36069        7.74069       -7.23473
O         17.59530        6.43717       -7.74472
C         18.99018        6.14259       -7.98434
C         19.11682        4.71721       -8.48945
C         20.57722        4.32636       -8.75434
C         20.73234        2.89697       -9.28763
C         22.19023        2.51022       -9.54668
H          1.70623       17.06438        1.43433
H          1.29802       15.33798        1.43171
H          1.42562       16.22119       -0.10091
H          3.77318       15.69997        1.83964
H          3.90011       16.58064        0.32153
H          3.21826       14.50991       -0.94014
H          3.08748       13.62730        0.57917
H          5.53419       14.05034        1.03142
H          5.66149       14.92757       -0.48954
H          5.01340       12.83082       -1.74421
H          4.91717       11.95572       -0.21712
H          7.35102       12.47966        0.22314
H          7.43501       13.34236       -1.30823
H          6.85575       11.18712       -2.52386
H          6.86653       10.33828       -0.97798
H          9.26813       11.06111       -0.62107
H          9.23973       11.88317       -2.17640
H          8.80854        9.65255       -3.31631
H          8.93528        8.85345       -1.74787
H         11.27142        9.80193       -1.48104
H         11.12459       10.56858       -3.05893
H         10.87625        8.28121       -4.12349
H         11.12231        7.53712       -2.54463
H         13.37311        8.60814       -2.35624
H         13.08951        9.48201       -3.86274
H         13.06299        7.37727       -5.14416
H         13.19397        6.41451       -3.67526
H         15.41242        7.22071       -3.15601
H         15.14942        5.29575       -4.79746
H         16.69653        6.16601       -4.91731
H         14.36297        6.41221       -6.71729
H         15.90249        5.81998       -7.05900
H         15.36518        7.92725       -8.03385
H         14.23336        9.00760       -6.25162
H         15.25154        9.56685       -4.06598
H         16.73596        8.73382       -4.49538
H         16.92793       10.42138       -6.60752
H         15.48148       11.12428       -5.88902
H         15.53459       10.03209       -8.76765
H         11.04061        9.94096       -9.10482
H         11.53847       11.54992       -8.48974
H         10.81024        8.78386       -6.86362
H         17.04639       11.98809       -8.53868
H         15.74926       12.90865       -7.69960
H         15.49915       12.23802      -12.90795
H         14.78109       13.53307      -11.89295
H         13.71809       10.44137      -12.32463
H         17.91917        7.89552       -6.29176
H         17.68964        8.51324       -7.95141
H         19.55143        6.28474       -7.04176
H         19.38074        6.86311       -8.72505
H         18.52574        4.61102       -9.41324
H         18.67694        4.03051       -7.74670
H         21.16289        4.43350       -7.82482
H         21.02123        5.03263       -9.47693
H         20.15003        2.79245      -10.21824
H         20.28456        2.19078       -8.56816
H         22.65504        3.17433      -10.29004
H         22.26895        1.48279       -9.92578
H         22.79055        2.57088       -8.62692
