73

F          3.07510       -2.84532       -0.88511
C          2.21955       -1.93826       -0.26332
C          2.81009       -1.50497        1.07469
S          4.57488       -1.03018        0.94196
C          4.47177        0.49155       -0.23931
O          5.67989        1.10422       -0.36090
C          6.67926        0.54287       -1.19850
C          6.48861       -0.66684       -1.86953
C          7.50072       -1.18567       -2.68834
C          7.29910       -2.47595       -3.43899
C          8.69300       -0.45654       -2.79592
C          8.86152        0.74584       -2.11344
C          7.86292        1.28869       -1.29063
C          8.04798        2.62471       -0.58490
C          9.35410        2.68147        0.22574
C          7.95272        3.78899       -1.59044
C          4.78586       -0.21404        2.72962
O          6.05724       -0.24252        3.16151
C          6.89135        0.92566        2.84277
C          6.54472        2.11950        3.71817
C          7.34148        3.37611        3.34362
C          6.95312        4.58440        4.20147
C          7.62601        5.89288        3.77659
C          7.15800        7.09489        4.60349
C          7.73832        8.43636        4.14611
C          7.21648        9.62480        4.96077
C          7.73856       10.98405        4.48527
C          7.18771       12.16484        5.29321
C          7.69481       13.52533        4.80836
H          1.25252       -2.43304       -0.08507
H          2.06103       -1.09295       -0.94908
H          2.81410       -2.34191        1.78729
H          2.23160       -0.67074        1.49996
H          3.76616        1.18790        0.23232
H          4.07164        0.07006       -1.17367
H          5.56487       -1.23966       -1.77525
H          6.43506       -3.03694       -3.06086
H          8.18478       -3.12113       -3.36587
H          7.12868       -2.28184       -4.50889
H          9.50153       -0.83686       -3.42213
H          9.80241        1.28679       -2.22399
H          7.21545        2.74447        0.12333
H         10.24149        2.63513       -0.42096
H          9.42142        1.85076        0.94189
H          9.41140        3.62299        0.78881
H          8.76061        3.73941       -2.33458
H          8.03356        4.75401       -1.07082
H          6.99762        3.77035       -2.13211
H          4.16452       -0.89323        3.32935
H          4.32665        0.78233        2.61770
H          6.78489        1.15282        1.77165
H          7.91277        0.56906        3.02155
H          6.71671        1.85419        4.77291
H          5.46904        2.35246        3.62608
H          7.16538        3.61562        2.28113
H          8.42228        3.17817        3.43724
H          7.18783        4.37388        5.25888
H          5.85733        4.71681        4.15716
H          7.41336        6.08034        2.70875
H          8.72232        5.79073        3.85451
H          7.41097        6.92812        5.66505
H          6.05545        7.14928        4.56332
H          7.49735        8.59200        3.07947
H          8.84019        8.40292        4.20513
H          7.48113        9.48262        6.02330
H          6.11249        9.62902        4.92488
H          7.48179       11.12119        3.41973
H          8.84181       10.99177        4.53215
H          7.45065       12.03015        6.35606
H          6.08529       12.14666        5.25183
H          8.79125       13.58952        4.87257
H          7.27940       14.34690        5.40761
H          7.41545       13.70538        3.75947
