61

C          0.80056       -0.80123        0.49890
C          2.32669       -0.69976        0.43810
C          2.89885        0.37818        1.36541
C          4.42339        0.51044        1.28996
C          4.98382        1.59294        2.21751
C          6.49933        1.78512        2.09979
C          7.03580        2.86969        3.03893
C          8.53271        3.15203        2.86213
C          9.03216        4.22844        3.83694
C         10.50056        4.57139        3.61434
N         11.01439        5.52144        4.68600
C         10.52765        6.95540        4.55123
C         11.56850        7.63849        3.65941
C         12.87141        6.80164        3.78907
C         12.53372        5.64448        4.74051
I         13.04759        5.87007        6.84852
C         14.08103        7.66548        4.20793
O         15.23967        6.91516        4.47186
C         16.12191        6.71223        3.35157
C         17.40249        6.08277        3.87353
C         18.46150        5.88294        2.78285
C         19.76301        5.29220        3.33120
H          0.42210       -1.58107       -0.17567
H          0.32508        0.14753        0.20876
H          0.45563       -1.04563        1.51460
H          2.64118       -0.48926       -0.59819
H          2.77318       -1.67486        0.69623
H          2.60079        0.15949        2.40612
H          2.43767        1.35118        1.11941
H          4.71781        0.73366        0.24932
H          4.89000       -0.45987        1.53418
H          4.72588        1.34785        3.26277
H          4.48170        2.55231        2.00079
H          6.75322        2.04560        1.05736
H          7.01274        0.83057        2.30821
H          6.83976        2.57808        4.08544
H          6.47214        3.80463        2.87390
H          8.72552        3.47426        1.82472
H          9.10985        2.22394        3.01100
H          8.89598        3.87051        4.87294
H          8.40566        5.12810        3.72893
H         10.67935        5.04370        2.63891
H         11.12870        3.67197        3.68268
H         10.70154        5.14597        5.59437
H         10.51564        7.37204        5.56583
H          9.50734        6.95270        4.15654
H         11.72202        8.67235        3.99655
H         11.23563        7.68616        2.61612
H         13.11234        6.33793        2.81865
H         12.97875        4.68585        4.46439
H         13.82253        8.19523        5.14066
H         14.25528        8.42578        3.42526
H         16.32783        7.68889        2.87453
H         15.64284        6.06221        2.59269
H         17.16129        5.11683        4.34681
H         17.80245        6.72934        4.67091
H         18.67332        6.85023        2.29752
H         18.06121        5.22633        1.99211
H         20.20759        5.94776        4.09401
H         20.50652        5.15768        2.53489
H         19.59272        4.31037        3.79700
