53

C          7.94864        4.44360       -4.09425
C          8.83383        3.67937       -3.10702
C          8.58883        4.07168       -1.64512
C          9.52857        3.36742       -0.66232
C          9.25643        3.71479        0.80578
C         10.28888        3.08789        1.75265
C          9.95157        3.35018        3.22113
S         11.34988        2.71538        4.23123
C         10.63675        2.70574        5.79760
N          9.43021        3.04080        6.20556
N          9.37655        2.74771        7.56299
C         10.54244        2.28524        7.88340
O         11.42388        2.22296        6.82921
N         10.99457        1.86367        9.13989
C         11.48952        0.59821        9.27380
N         12.54176        0.22808       10.02673
N         12.79148       -1.10908        9.95894
C         11.88852       -1.55632        9.12836
N         11.04411       -0.54926        8.68796
C          9.86584       -0.74248        7.81707
C         10.25250       -1.01005        6.36911
F         10.96915       -2.20835        6.30549
C         11.21192        2.84188       10.18782
C         10.88675        2.53296       11.51019
C         11.11324        3.51979       12.47458
N         11.60397        4.73484       12.19601
C         11.89009        5.01018       10.91669
C         11.72096        4.09969        9.86870
H          8.13202        4.12381       -5.12876
H          8.13772        5.52611       -4.04310
H          6.88097        4.28474       -3.88186
H          9.89505        3.85078       -3.35524
H          8.66836        2.59494       -3.22277
H          7.54056        3.84950       -1.37844
H          8.70236        5.16455       -1.53653
H         10.57240        3.62833       -0.91019
H          9.45085        2.27434       -0.79622
H          8.24372        3.37646        1.08401
H          9.26055        4.81024        0.93549
H         11.28778        3.49236        1.51742
H         10.34296        2.00089        1.57911
H          9.03911        2.83062        3.54020
H          9.84295        4.42073        3.43912
H         13.10547        0.82614       10.62684
H         11.79300       -2.58852        8.80838
H          9.22426        0.14407        7.89269
H          9.31016       -1.59874        8.22227
H         10.88777       -0.21806        5.94808
H          9.33967       -1.11375        5.76445
H         10.44674        1.57421       11.78718
H         10.86962        3.32402       13.52186
H         12.28316        6.00896       10.71159
H         11.97581        4.37383        8.84476
