49

C         12.49833       -3.58781       -0.09198
C         11.20779       -2.76647       -0.14208
C         11.41459       -1.29441        0.23258
C         10.12050       -0.47301        0.20763
C         10.34068        0.99976        0.57952
C          9.04402        1.78699        0.60820
O          9.35995        3.17270        0.91958
C          8.21990        3.97130        1.09543
N          8.70704        5.32302        1.38004
N          8.09211        6.42115        0.84013
C          8.75558        7.43771        1.31311
N          9.78650        7.02922        2.13882
C          9.75592        5.67005        2.16898
N         10.58144        4.84044        2.81260
C         11.66998        5.26690        3.64405
C         11.44008        6.14486        4.71137
C         12.51652        6.54760        5.50531
C         13.80039        6.05716        5.25237
C         14.01279        5.16090        4.20080
C         12.95100        4.76750        3.38483
C          8.45096        8.89012        1.02413
C          7.79262        9.64558        2.21306
F          6.62938        9.02993        2.54120
F          8.64360        9.57011        3.28806
F          9.63687        9.52715        0.74277
F          7.63633        8.97554       -0.04950
H         12.31597       -4.63520       -0.36640
H         12.93899       -3.58110        0.91596
H         13.25351       -3.19058       -0.78636
H         10.46065       -3.21133        0.53658
H         10.77085       -2.82516       -1.15307
H         12.14932       -0.84171       -0.45616
H         11.86481       -1.23448        1.23917
H          9.39039       -0.92425        0.90132
H          9.66689       -0.53355       -0.79616
H         11.02774        1.47058       -0.14178
H         10.82056        1.06286        1.57111
H          8.35260        1.39433        1.37544
H          8.53097        1.75816       -0.36880
H          7.60073        3.62166        1.94475
H          7.59400        4.05613        0.19163
H         10.47711        7.61482        2.60522
H         10.54480        3.87692        2.46541
H         10.42792        6.47772        4.94897
H         12.34359        7.22816        6.33894
H         14.63477        6.36604        5.88168
H         15.01196        4.77121        4.00650
H         13.11466        4.08362        2.55059
H          7.61027       10.70209        1.96048
