49

C          3.72110        3.42990        1.15727
C          3.66646        2.84614       -0.25684
C          4.47637        1.55280       -0.39533
C          4.43507        0.91819       -1.79088
N          4.99430        1.77833       -2.84892
C          6.31762        1.89330       -3.05180
O          7.17935        1.28951       -2.39934
C          6.78888        2.83217       -4.17574
P          8.56082        3.12695       -3.83762
C          9.63669        1.68613       -4.17707
C         10.81921        1.57851       -3.19056
C         10.39067        1.11375       -1.80770
Br        11.83283        1.25303       -0.50248
Br        12.09759        0.31138       -3.99780
C          9.18275        4.55548       -4.78304
C          8.50337        5.92030       -4.53666
C          8.35275        6.44785       -3.09528
C          9.61519        6.85972       -2.31641
S         10.46590        5.47511       -1.52649
O          9.49548        4.70112       -0.76775
O         11.30475        4.81742       -2.50496
O         11.44960        6.22288       -0.50061
H          3.14008        4.35853        1.23060
H          4.75493        3.65669        1.45700
H          3.31234        2.72425        1.89472
H          4.04200        3.59741       -0.97336
H          2.61692        2.65351       -0.53724
H          4.09325        0.79832        0.31084
H          5.52618        1.72781       -0.11131
H          3.40228        0.68874       -2.08766
H          5.00497       -0.02031       -1.79786
H          4.35772        2.33622       -3.40738
H          6.25803        3.79527       -4.20919
H          6.68142        2.35530       -5.16223
H          8.63690        3.46175       -2.47012
H         10.01031        1.80971       -5.20371
H          9.00892        0.78663       -4.13622
H         11.37643        2.52010       -3.12614
H         10.05606        0.07092       -1.81004
H          9.58422        1.74233       -1.41266
H          9.10384        4.28810       -5.84838
H         10.25539        4.59351       -4.54023
H          7.49600        5.90124       -4.97992
H          9.06631        6.65705       -5.13021
H          7.76137        5.75927       -2.47017
H          7.74155        7.35944       -3.16574
H          9.33965        7.52637       -1.48833
H         10.36547        7.36918       -2.93723
H         11.11846        6.08450        0.40923
