82

C          0.71009       -0.35224        2.32624
C          2.23858       -0.27064        2.34116
C          2.77141        1.16677        2.37075
C          4.30081        1.25297        2.37541
C          4.84352        2.68639        2.35860
C          6.37411        2.75334        2.35327
C          6.94010        4.17646        2.29166
C          8.47189        4.21193        2.28758
C          9.07094        5.62057        2.20790
C         10.60314        5.61494        2.22584
C         11.24396        7.00557        2.14521
C         12.77325        6.94835        2.21612
C         13.46768        8.31317        2.11767
C         14.99125        8.19430        2.26467
C         15.76283        9.48111        2.01445
N         15.34173       10.60708        2.94239
N         15.52708       10.22187        4.34831
C         16.92544       10.30380        4.77683
C         14.61488       10.98270        5.20484
C         15.88382       11.96433        2.50184
C         15.06438       12.54708        1.34805
C         13.56838       12.75227        1.64367
C         13.25771       13.77085        2.74778
C         11.75684       13.99532        2.96307
C         11.44809       14.99314        4.08446
C          9.95048       15.26182        4.27198
C          9.64977       16.24285        5.40753
H          0.36187       -1.39398        2.29768
H          0.29148        0.16126        1.44770
H          0.27528        0.11840        3.22066
H          2.64382       -0.78710        1.45439
H          2.62951       -0.82095        3.21387
H          2.37125        1.68613        3.25958
H          2.37711        1.71750        1.49827
H          4.69725        0.70688        1.50112
H          4.69342        0.72439        3.26206
H          4.45434        3.23748        3.23284
H          4.45128        3.21349        1.47101
H          6.75828        2.17496        1.49447
H          6.76331        2.24611        3.25375
H          6.56102        4.76094        3.14846
H          6.55841        4.68299        1.38771
H          8.84536        3.61218        1.43894
H          8.84773        3.71006        3.19670
H          8.69588        6.22792        3.05045
H          8.71392        6.12087        1.29066
H         10.97350        4.99874        1.38798
H         10.95090        5.11087        3.14471
H         10.86000        7.63572        2.96713
H         10.93338        7.50163        1.20907
H         13.15314        6.30138        1.40694
H         13.07486        6.46063        3.15890
H         13.05243        8.96948        2.90729
H         13.21653        8.78661        1.15172
H         15.37207        7.46725        1.52968
H         15.24640        7.79505        3.25630
H         15.58512        9.86531        1.00094
H         16.84544        9.35526        2.14076
H         14.31372       10.66574        2.85215
H         17.56732        9.70144        4.12352
H         16.97090        9.85877        5.77781
H         17.32063       11.33379        4.83813
H         13.58560       10.89042        4.82965
H         14.87117       12.05329        5.31172
H         14.64637       10.52227        6.19936
H         16.93577       11.81816        2.22907
H         15.83842       12.61720        3.38188
H         15.19153       11.93241        0.44392
H         15.52579       13.51805        1.10896
H         13.07172       11.78703        1.87352
H         13.08829       13.07518        0.70729
H         13.73985       14.73009        2.49279
H         13.70744       13.45839        3.70663
H         11.26779       13.03006        3.18615
H         11.30552       14.34957        2.02060
H         11.96519       15.94638        3.87770
H         11.87349       14.62032        5.03385
H          9.42939       14.30771        4.45942
H          9.53473       15.65203        3.32799
H         10.00844       15.86003        6.37457
H          8.57136       16.42501        5.50364
H         10.13560       17.21478        5.23639
