75

C         12.39080       -2.48654       -2.65402
C         12.18014       -2.78124       -1.16672
C         10.71006       -3.06306       -0.82788
C         10.49749       -3.36860        0.64348
O          9.07775       -3.59199        0.85232
C          8.74208       -3.90174        2.16079
N          7.23604       -3.93543        2.19105
C          6.69587       -5.04866        1.32074
O          5.32324       -4.87519        1.27794
C          4.67209       -5.79456        0.35542
C          3.16789       -5.65096        0.48655
C          2.58827       -4.30901        0.02198
C          1.05695       -4.28561        0.10411
C          0.41453       -3.00350       -0.43613
C         -1.11729       -3.03562       -0.38001
C         -1.79421       -1.80158       -0.98562
C         -3.32495       -1.87756       -0.96082
C         -4.01732       -0.66805       -1.59719
C         -5.54763       -0.76527       -1.59594
C         -6.23383        0.44155       -2.24134
C          6.65640       -3.95067        3.58770
C          6.82237       -2.57111        4.22597
O          6.56480       -1.63165        3.19915
C          6.49697       -0.26665        3.65124
C          6.35040        0.65146        2.45882
O          5.09110        0.43510        1.85509
C          4.84093        1.33317        0.77803
H         13.44845       -2.28871       -2.87147
H         11.81482       -1.60628       -2.97424
H         12.07685       -3.33529       -3.27870
H         12.53930       -1.92881       -0.56674
H         12.79814       -3.64536       -0.87186
H         10.34513       -3.91542       -1.42356
H         10.08910       -2.19496       -1.10186
H         10.82342       -2.52780        1.28330
H         11.05344       -4.27306        0.95046
H          9.07001       -3.13237        2.88175
H          9.10457       -4.89516        2.49016
H          6.91458       -3.02832        1.79338
H          7.00341       -6.00351        1.79276
H          7.18429       -4.94289        0.33793
H          4.98810       -6.82308        0.60471
H          5.01511       -5.56206       -0.66929
H          2.88295       -5.85215        1.53243
H          2.72419       -6.46658       -0.10879
H          2.90223       -4.12002       -1.01971
H          3.00750       -3.48669        0.62471
H          0.74554       -4.43748        1.15261
H          0.65505       -5.14891       -0.45510
H          0.73705       -2.84772       -1.48076
H          0.78862       -2.13251        0.13042
H         -1.44208       -3.15372        0.66878
H         -1.47629       -3.93682       -0.90771
H         -1.45379       -1.67533       -2.02856
H         -1.46201       -0.89609       -0.44774
H         -3.66864       -1.98832        0.08274
H         -3.64875       -2.79571       -1.48212
H         -3.66258       -0.54964       -2.63653
H         -3.71040        0.25172       -1.06819
H         -5.90327       -0.88099       -0.55796
H         -5.85141       -1.68636       -2.12195
H         -5.98224        1.37418       -1.71451
H         -7.32769        0.33835       -2.22752
H         -5.92577        0.56257       -3.29080
H          7.14728       -4.74365        4.16665
H          5.59709       -4.19494        3.45453
H          7.83495       -2.42542        4.65050
H          6.10085       -2.48576        5.05830
H          7.42096       -0.00957        4.20060
H          5.63404       -0.15234        4.32965
H          7.17440        0.47365        1.73646
H          6.44918        1.69549        2.81961
H          3.84815        1.08865        0.38419
H          5.58915        1.21928       -0.02765
H          4.84639        2.38357        1.12034
