84

C          2.51663      -17.80930        2.65640
C          3.99619      -17.43368        2.54487
C          4.24269      -16.15190        1.74124
C          5.72406      -15.78012        1.62678
C          5.98749      -14.50034        0.82680
C          7.47613      -14.15672        0.71706
C          7.77048      -12.88025       -0.07739
C          9.26886      -12.58298       -0.18610
C          9.60790      -11.30838       -0.96626
C         11.11878      -11.08591       -1.08177
C         11.51715       -9.82130       -1.85074
C         13.04256       -9.69301       -1.96430
C         13.46889       -8.43560       -2.71367
N         14.97433       -8.29820       -2.75822
C         15.54898       -6.96515       -3.40036
C         14.68909       -5.73651       -3.26581
C         14.56147       -5.20422       -1.83205
C         13.91119       -3.80957       -1.80285
N         14.71046       -2.85849       -2.57801
O         15.75686       -7.34461       -4.71949
C         16.42295       -8.60897       -4.65294
C         15.63226       -9.40286       -3.59224
C         16.43632      -10.38967       -2.75265
C         16.52832      -11.73601       -3.48001
O         15.95729      -11.96392       -4.52984
O         17.27504      -12.59115       -2.77745
C         17.40102      -13.95898       -3.31020
C         18.56536      -14.08575       -4.27877
C         18.75524      -15.54317       -4.72166
C         19.89669      -15.72757       -5.72852
C         20.08216      -17.18572       -6.15531
H          2.37669      -18.72865        3.24134
H          2.07114      -17.97627        1.66420
H          1.93767      -17.01243        3.14671
H          4.55363      -18.26458        2.07980
H          4.42332      -17.31406        3.55519
H          3.68965      -15.31717        2.20729
H          3.81497      -16.26789        0.72950
H          6.27363      -16.61765        1.16160
H          6.14998      -15.66839        2.63972
H          5.44911      -13.65729        1.29438
H          5.56060      -14.60643       -0.18607
H          8.00924      -15.00402        0.25048
H          7.90143      -14.05772        1.73150
H          7.25738      -12.02486        0.39572
H          7.33993      -12.96962       -1.09012
H          9.77235      -13.44187       -0.66419
H          9.69902      -12.51035        0.82844
H          9.14020      -10.43739       -0.47540
H          9.16580      -11.36390       -1.97611
H         11.57401      -11.96317       -1.57400
H         11.55792      -11.04549       -0.06946
H         11.10244       -8.93064       -1.34916
H         11.07447       -9.84390       -2.86077
H         13.43392      -10.59265       -2.46526
H         13.48038       -9.67824       -0.94970
H         13.07771       -7.53961       -2.21679
H         13.12327       -8.43349       -3.75620
H         15.31851       -8.34934       -1.79129
H         16.51027       -6.84179       -2.85960
H         13.70546       -5.90288       -3.73055
H         15.17940       -4.95393       -3.86693
H         15.56374       -5.13794       -1.37410
H         13.97111       -5.87850       -1.18874
H         13.75390       -3.51707       -0.74866
H         12.91260       -3.86901       -2.26299
H         15.48204       -2.48467       -2.02481
H         14.15030       -2.06220       -2.87759
H         17.47750       -8.47142       -4.35217
H         16.37955       -9.08165       -5.63922
H         14.81642       -9.94194       -4.08731
H         15.95137      -10.58574       -1.78395
H         17.44915      -10.02270       -2.52900
H         16.44721      -14.22905       -3.78274
H         17.55210      -14.56793       -2.41017
H         19.48303      -13.71644       -3.79331
H         18.38096      -13.44968       -5.15885
H         17.81662      -15.91721       -5.16619
H         18.94571      -16.17402       -3.83602
H         20.83418      -15.34757       -5.28876
H         19.70131      -15.10276       -6.61608
H         20.31451      -17.82781       -5.29264
H         20.90347      -17.29030       -6.87664
H         19.17171      -17.58322       -6.62802
