67

C          0.79266       -0.23453        0.46226
C          2.28679       -0.19721        0.13086
C          2.86671        1.22119        0.08752
C          4.36284        1.26322       -0.23921
C          4.94588        2.67929       -0.28842
C          6.44532        2.71237       -0.60177
C          7.03412        4.12582       -0.66113
C          8.53669        4.14656       -0.95911
C          9.13485        5.55548       -1.03242
C         10.63983        5.55762       -1.32106
C         11.24503        6.96154       -1.42796
C         12.75292        6.94373       -1.70606
C         13.34408        8.34732       -1.88046
C         14.85441        8.29894       -2.13147
N         15.40012        9.62787       -2.45479
N         15.48646       10.01676       -3.76171
C         15.92644       11.25747       -3.72693
N         16.11502       11.64086       -2.41904
C         15.77130       10.60512       -1.62195
C         15.80267       10.57995       -0.12687
C         16.95763       11.35310        0.45223
C         18.10067       10.85021        0.92807
Br        18.49621        9.00623        0.92224
Br        16.72889       13.25427        0.48861
C         16.16488       12.12546       -4.91722
C         14.92890       12.92404       -5.38716
C         14.31847       13.81924       -4.32094
F         15.27619       14.52206       -3.63792
F         13.45601       14.70481       -4.84538
F         13.63916       13.09130       -3.37997
H          0.40821       -1.26357        0.47774
H          0.20465        0.32797       -0.27801
H          0.59095        0.20959        1.44842
H          2.46095       -0.68897       -0.84138
H          2.84416       -0.79352        0.87314
H          2.69129        1.71544        1.05960
H          2.31197        1.81883       -0.65741
H          4.53834        0.76380       -1.20856
H          4.91544        0.66801        0.50926
H          4.76401        3.18267        0.67753
H          4.40128        3.27256       -1.04409
H          6.62765        2.20207       -1.56401
H          6.98863        2.12324        0.15809
H          6.84448        4.64145        0.29680
H          6.50007        4.71196       -1.42968
H          8.72662        3.62139       -1.91188
H          9.06851        3.56570       -0.18482
H          8.94293        6.08540       -0.08294
H          8.61142        6.13491       -1.81311
H         10.83121        5.00887       -2.25971
H         11.16332        4.99349       -0.52934
H         11.05031        7.52007       -0.49585
H         10.73299        7.52032       -2.23059
H         12.95028        6.35380       -2.61722
H         13.27123        6.42037       -0.88410
H         13.13801        8.95898       -0.98597
H         12.86176        8.85437       -2.73123
H         15.09965        7.67039       -2.99628
H         15.40677        7.91281       -1.26298
H         16.41034       12.55658       -2.06913
H         15.86837        9.53391        0.20550
H         14.85034       10.98461        0.25455
H         18.88960       11.46367        1.35761
H         16.48577       11.47419       -5.74009
H         16.99508       12.81191       -4.70237
H         14.13720       12.25131       -5.74245
H         15.22413       13.56606       -6.22731
