60

C          1.53344       -0.61301        1.23097
C          2.72925       -0.27516        0.33923
C          3.34590        1.09429        0.64519
C          4.54609        1.41974       -0.24965
C          5.16821        2.77204        0.05909
O          6.30063        2.96564       -0.79412
C          6.99588        4.17020       -0.53826
C          8.23556        4.16072       -1.43559
C          9.26183        5.31289       -1.29500
C          9.70265        5.49451        0.16936
N          8.82385        6.42503        0.89300
C          7.95093        7.24488        0.29968
N          7.07550        7.94642        1.05556
N          7.94679        7.39734       -1.02588
C          8.88618        6.69026       -1.93186
C         10.10825        7.59462       -2.25603
C         11.10714        8.00898       -1.16821
C         11.95772        9.20429       -1.63688
N         11.12030       10.39505       -1.82629
C          8.13622        6.53008       -3.28385
O          6.75594        6.30665       -3.05670
C          6.00755        6.13515       -4.27863
C          4.55209        5.90400       -3.92845
H          1.11857       -1.59999        0.98651
H          0.72631        0.12517        1.11400
H          1.81895       -0.62674        2.29331
H          2.42188       -0.30382       -0.71938
H          3.50465       -1.05130        0.45079
H          3.65497        1.12302        1.70489
H          2.57251        1.87406        0.53113
H          4.24166        1.40175       -1.30842
H          5.32037        0.64467       -0.13242
H          5.49151        2.81704        1.11951
H          4.43445        3.58890       -0.09761
H          7.27979        4.21443        0.53504
H          6.34610        5.04167       -0.75216
H          7.89974        4.07835       -2.47749
H          8.77564        3.22586       -1.21808
H         10.16032        4.98236       -1.83862
H         10.73147        5.86760        0.23859
H          9.66192        4.52672        0.68937
H          8.92159        6.48558        1.90097
H          6.85037        7.65697        1.99883
H          6.49728        8.66168        0.63329
H          7.05894        7.65030       -1.46309
H          9.70188        8.53066       -2.66987
H         10.65862        7.10155       -3.07562
H         11.79176        7.18882       -0.90549
H         10.58320        8.30895       -0.24481
H         12.42219        8.95694       -2.60390
H         12.78530        9.35192       -0.91971
H         11.58074       11.07028       -2.43522
H         10.96624       10.87150       -0.93686
H          8.59558        5.69451       -3.84444
H          8.27346        7.44744       -3.88653
H          6.42332        5.27401       -4.83243
H          6.13333        7.03432       -4.90936
H          4.43646        5.00746       -3.30548
H          3.96898        5.75865       -4.84730
H          4.12995        6.76541       -3.39346
