51

C          6.05144       -2.51835        1.53217
C          7.13749       -1.46897        1.28437
C          7.20126       -1.02745       -0.18594
C          8.28110        0.01758       -0.40287
O          8.39909        0.37709       -1.83514
C          7.58850        1.33003       -2.27089
O          6.77151        1.97324       -1.62921
N          7.79601        1.53473       -3.65177
C          8.76324        0.80904       -4.50045
C          8.62677        1.47546       -5.90809
N          7.54306        2.46158       -5.64374
C          7.11945        2.47156       -4.38297
N          6.18231        3.25274       -3.86560
C          8.18710        0.47781       -7.00073
C          6.85834       -0.23910       -6.75369
C          9.93287        2.21700       -6.26818
C          9.90569        3.06586       -7.54909
C         11.07651        4.05908       -7.62877
C         12.43853        3.38877       -7.85068
S         13.76055        4.56410       -7.49495
O         13.73052        5.63655       -8.46669
O         13.73984        4.82240       -6.07618
O         15.06981        3.64910       -7.78816
H          6.02714       -2.81639        2.58819
H          6.22549       -3.42470        0.93467
H          5.05516       -2.13236        1.27286
H          8.11757       -1.87080        1.58916
H          6.95399       -0.58921        1.92241
H          6.22538       -0.61631       -0.48941
H          7.40546       -1.89811       -0.82968
H          9.28125       -0.36170       -0.16233
H          8.08972        0.93981        0.16050
H          8.51508       -0.25927       -4.51632
H          9.77552        0.92703       -4.09509
H          7.15999        3.06512       -6.36241
H          5.71331        3.96014       -4.41723
H          5.99784        3.12943       -2.86197
H          9.00243       -0.25427       -7.11438
H          8.13744        1.01630       -7.95951
H          6.86376       -0.84114       -5.83376
H          6.64313       -0.92554       -7.58146
H          6.01651        0.46432       -6.68841
H         10.72798        1.45685       -6.32876
H         10.19385        2.86666       -5.41579
H          8.97843        3.66256       -7.58878
H          9.89324        2.42358       -8.44312
H         11.10882        4.64548       -6.69680
H         10.89707        4.77413       -8.44322
H         12.57174        3.04761       -8.88623
H         12.62335        2.54597       -7.17048
H         15.48459        3.98884       -8.60468
