54

C          2.58582        2.62336       -1.29900
C          3.39459        1.44569       -0.75089
C          4.18150        0.69828       -1.83356
C          4.99826       -0.47570       -1.28332
C          5.74197       -1.25644       -2.37713
C          6.55355       -2.39042       -1.77599
O          7.10620       -3.28420       -2.82210
C          8.26969       -2.95893       -3.35313
O          8.97823       -2.00082       -3.08420
C          8.69243       -3.96722       -4.42609
N         10.11042       -3.65267       -4.79279
C         11.13832       -4.47997       -3.98564
C         11.11152       -5.96958       -4.31773
O         11.55560       -6.18169       -5.65260
C         12.53078       -3.84378       -4.07823
C         12.58292       -2.35121       -3.73701
C         10.35014       -3.54739       -6.28425
C          9.68539       -2.29147       -6.85445
C         10.23785       -1.93186       -8.23919
C         11.68432       -1.44080       -8.17329
O         12.32392       -1.37144       -7.14681
O         12.24872       -1.07445       -9.34803
H          2.03012        3.13200       -0.50000
H          1.85486        2.29186       -2.05118
H          3.23751        3.36985       -1.77640
H          2.71868        0.73796       -0.24213
H          4.09357        1.80526        0.02284
H          4.85563        1.40371       -2.35004
H          3.48129        0.32798       -2.60281
H          4.32859       -1.16251       -0.73781
H          5.72219       -0.09962       -0.54021
H          6.40642       -0.57921       -2.93654
H          5.01675       -1.67341       -3.09431
H          5.93029       -3.06944       -1.18192
H          7.39204       -2.02745       -1.16765
H          8.04671       -3.85889       -5.30612
H          8.60138       -4.99821       -4.06877
H         10.22926       -2.68996       -4.39668
H         10.77328       -4.37368       -2.95030
H         10.10091       -6.39295       -4.16380
H         11.77349       -6.45660       -3.58088
H         11.76001       -7.12182       -5.77176
H         12.97202       -4.03512       -5.06637
H         13.15192       -4.40711       -3.36480
H         12.13195       -1.72088       -4.51749
H         13.62730       -2.02521       -3.66231
H         12.09698       -2.12944       -2.77580
H          9.99680       -4.47571       -6.74799
H         11.43389       -3.48961       -6.41644
H          9.87209       -1.44121       -6.17961
H          8.59522       -2.41498       -6.93044
H          9.61963       -1.13855       -8.68805
H         10.18099       -2.78947       -8.93061
H         11.61998       -1.16331      -10.08653
