115

C          0.98755       -0.74321        0.24785
C          2.46421       -0.84420        0.63867
C          3.05088        0.48085        1.13684
C          4.53451        0.40182        1.50931
C          5.11270        1.73322        1.99851
C          6.60659        1.67558        2.33249
C          7.18485        3.02458        2.77140
C          8.69147        2.98905        3.04439
C          9.27725        4.35545        3.41579
C         10.79568        4.31907        3.61641
C         11.37435        5.67453        3.98454
O         12.78832        5.53133        4.16922
C         13.40053        6.70756        4.65308
C         14.79710        6.46166        5.20188
C         15.77774        7.48562        4.96460
C         15.45096        8.74972        4.20326
C         14.46212        9.65466        4.92479
C         13.48381       10.35458        4.20722
C         12.59556       11.21012        4.85874
C         12.64687       11.38900        6.24996
C         13.62708       10.68274        6.96322
C         14.51948        9.82915        6.31447
C         11.66897       12.29170        6.95599
C         17.06473        7.35873        5.47053
C         17.43396        6.25877        6.25176
C         16.44812        5.23721        6.51518
C         15.12416        5.32516        5.95972
C         14.13405        4.21594        6.24008
C         13.03586        4.58851        7.25582
C         12.01748        3.45845        7.45278
C         10.71957        3.93094        8.11475
C          9.72872        2.80188        8.41699
C          8.38739        3.30608        8.96191
C          7.45812        2.19198        9.45561
C          6.09439        2.70409        9.93254
C          5.22649        1.62886       10.59543
C          3.83739        2.13607       10.99888
C          3.01757        1.11065       11.78753
C          1.60284        1.61254       12.10627
N          0.84258        0.69583       12.94720
C          0.19907       -0.44225       12.51476
C         -0.31991       -1.09767       13.62266
C          0.02917       -0.33418       14.76460
C          0.74990        0.76503       14.31894
C         16.84036        4.18483        7.35535
N         18.08776        4.12598        7.86083
C         19.05438        5.06494        7.60197
C         18.73954        6.12831        6.80595
H          0.59351       -1.70969       -0.09513
H          0.83914       -0.01780       -0.56562
H          0.37014       -0.41584        1.09751
H          3.05106       -1.19829       -0.22591
H          2.58785       -1.61234        1.42097
H          2.47155        0.82994        2.01015
H          2.91347        1.25281        0.35878
H          5.11114        0.05560        0.63329
H          4.67779       -0.36926        2.28706
H          4.55108        2.07264        2.88666
H          4.94613        2.50470        1.22608
H          7.16190        1.31395        1.44916
H          6.77900        0.92502        3.12409
H          6.65471        3.37697        3.67384
H          6.97867        3.77615        1.98904
H          9.21264        2.60317        2.15108
H          8.90450        2.26689        3.85251
H          8.79008        4.72659        4.33453
H          9.02811        5.08305        2.62429
H         11.28801        3.95870        2.69895
H         11.04826        3.59907        4.41198
H         10.91996        6.05432        4.92145
H         11.17172        6.42183        3.19258
H         12.79318        7.16585        5.46267
H         13.43757        7.46190        3.85093
H         15.05546        8.50301        3.20549
H         16.39006        9.29692        4.02636
H         13.41983       10.23565        3.12313
H         11.84888       11.75155        4.27440
H         13.69628       10.80686        8.04584
H         15.27234        9.29836        6.90077
H         11.35998       13.12857        6.31642
H         12.09666       12.70434        7.87876
H         10.75709       11.74103        7.23549
H         17.79961        8.14008        5.27060
H         14.64937        3.30838        6.58224
H         13.64909        3.94600        5.29636
H         12.50775        5.48870        6.90741
H         13.49032        4.86551        8.22190
H         12.47079        2.64853        8.05047
H         11.77931        3.01044        6.47285
H         10.23835        4.67672        7.45697
H         10.95521        4.46422        9.05231
H         10.18337        2.10786        9.14581
H          9.55362        2.20745        7.50289
H          7.87617        3.89469        8.17990
H          8.57388        4.00939        9.79278
H          7.95388        1.65077       10.28081
H          7.31001        1.44815        8.65329
H          5.55027        3.14258        9.07774
H          6.24705        3.53119       10.64807
H          5.74851        1.24221       11.48800
H          5.11626        0.76733        9.91412
H          3.28404        2.43437       10.09076
H          3.94534        3.05551       11.60110
H          3.52721        0.86766       12.73396
H          2.94529        0.16675       11.22319
H          1.03609        1.78091       11.17741
H          1.64947        2.57875       12.63002
H          0.15525       -0.68812       11.45856
H         -0.89647       -2.01679       13.60215
H         -0.22690       -0.54711       15.79731
H          1.19285        1.59391       14.86197
H         16.17716        3.37729        7.65231
H         18.32382        3.34369        8.46730
H         20.02577        4.90090        8.06137
H         19.49572        6.88533        6.60186
