57

C          3.64915        2.24248       -7.18987
C          3.83605        3.59369       -6.49733
C          4.81949        3.53773       -5.32418
C          5.00698        4.89038       -4.62933
C          5.95639        4.81741       -3.42619
C          6.09532        6.16935       -2.74860
O          6.86949        6.04568       -1.49564
C          8.17212        6.30555       -1.54927
O          8.82612        6.66096       -2.50768
C          8.77397        6.13037       -0.13838
N         10.22732        6.12550       -0.19721
N         10.89328        4.93053       -0.14063
C         12.16152        5.23029       -0.34877
N         12.27684        6.59106       -0.54691
C         11.04792        7.15034       -0.45897
C         10.73934        8.59875       -0.60973
C         11.03143        9.46876        0.63788
C         12.40881        9.31666        1.26361
Br        13.88025        9.50675       -0.04739
C         13.29094        4.25968       -0.40140
C         13.22535        3.32638       -1.63175
C         14.40115        2.34617       -1.67116
C         14.33512        1.38138       -2.86058
C         15.52108        0.41560       -2.90840
H          2.93548        2.31432       -8.02136
H          3.26823        1.48473       -6.48898
H          4.59963        1.86824       -7.59814
H          2.86120        3.95918       -6.13251
H          4.18666        4.33999       -7.22975
H          5.79729        3.17147       -5.68261
H          4.46661        2.79470       -4.58757
H          4.02454        5.26661       -4.29598
H          5.38721        5.62613       -5.35833
H          6.94865        4.46461       -3.74967
H          5.57222        4.08889       -2.69465
H          5.12541        6.55822       -2.41396
H          6.59383        6.90829       -3.38888
H          8.46276        5.17830        0.30454
H          8.42452        6.94335        0.51235
H         13.13152        7.14589       -0.68242
H          9.68938        8.71156       -0.90446
H         11.33884        8.97083       -1.45355
H         10.29876        9.24604        1.43177
H         10.86715       10.51411        0.34229
H         12.56922        8.33603        1.72562
H         12.59727       10.09461        2.00961
H         13.26658        3.65521        0.51811
H         14.24062        4.81575       -0.39477
H         13.21268        3.93335       -2.55175
H         12.27287        2.77489       -1.60519
H         14.42661        1.76644       -0.73220
H         15.34987        2.90930       -1.70941
H         14.29214        1.96166       -3.79746
H         13.39308        0.81041       -2.81087
H         16.47400        0.95751       -2.99796
H         15.44453       -0.26637       -3.76555
H         15.57244       -0.19946       -1.99803
