65

C          1.60816       -0.64759        0.37987
C          3.06694       -0.18965        0.30870
C          3.47803        0.31544       -1.07910
C          4.93865        0.77141       -1.15894
C          5.34965        1.26909       -2.54811
C          6.81081        1.72550       -2.62652
C          7.22093        2.18148       -4.03094
C          8.67117        2.62969       -4.10681
O          9.01973        2.79318       -5.49201
C         10.33157        3.26051       -5.69880
C         10.60235        3.35582       -7.19293
C          9.54509        4.21310       -7.90996
O          9.82387        4.39501       -9.29779
C          9.94269        3.15697       -9.97350
C         11.09479        2.31760       -9.39866
N         10.63376        2.01200       -7.94701
C         11.19755        0.81003       -7.19062
C          9.94790        0.19761       -6.52544
O          8.87452        0.21475       -7.10691
O         10.22299       -0.38345       -5.36841
C          9.12381       -1.13796       -4.72868
C          9.53380       -1.42536       -3.30385
C         11.79610       -0.29426       -8.06644
N         12.34823        3.05281       -9.38037
N         13.43989        2.21924       -9.03240
N         12.62899        3.90766      -10.47216
H          1.34583       -0.99984        1.38669
H          1.41271       -1.47248       -0.32146
H          0.91911        0.17136        0.12551
H          3.72981       -1.02114        0.60286
H          3.23940        0.60912        1.04984
H          2.81826        1.15075       -1.37313
H          3.30270       -0.48180       -1.82340
H          5.59815       -0.06291       -0.85999
H          5.11228        1.57191       -0.41860
H          4.69140        2.10204       -2.84957
H          5.17870        0.46801       -3.28923
H          7.46725        0.89850       -2.30218
H          6.97774        2.54332       -1.90472
H          6.57127        3.00444       -4.36832
H          7.07291        1.36086       -4.75216
H          9.34803        1.88085       -3.65115
H          8.82469        3.58482       -3.57052
H         11.07838        2.62227       -5.18710
H         10.47189        4.28237       -5.29008
H         11.60078        3.78350       -7.35161
H          9.52826        5.21551       -7.46437
H          8.54724        3.75667       -7.77409
H         10.11128        3.37849      -11.03365
H          9.00789        2.56470       -9.90298
H         11.14095        1.33922       -9.91015
H          9.63658        1.69697       -8.04388
H         11.93722        1.16679       -6.46795
H          8.97714       -2.05282       -5.31980
H          8.21439       -0.52882       -4.79910
H         10.45658       -2.01782       -3.26048
H          8.73761       -2.00060       -2.81242
H          9.68128       -0.49893       -2.73370
H         11.07347       -0.67305       -8.80139
H         12.06349       -1.12892       -7.40531
H         12.70468        0.05709       -8.56112
H         14.16118        2.82906       -8.64114
H         13.85140        1.80570       -9.88104
H         12.12352        4.78671      -10.35293
H         12.39796        3.49532      -11.38397
