63

C          4.92988       -1.62808       -0.30917
C          4.35503       -1.04066        0.97740
C          2.89782       -0.58346        0.77026
N          2.35116        0.03048        1.99202
C          2.46915        1.30608        2.43743
C          3.02245        2.44102        1.66897
C          1.96623        3.07068        0.70660
O          2.60750        3.97965       -0.13493
Si         2.37690        5.66839       -0.07656
C          2.71844        6.25974        1.67529
C          3.62241        6.32875       -1.29926
C          0.61013        6.04895       -0.57724
N          1.91985        1.38245        3.66247
N          1.47791        0.17850        3.98583
N          1.73684       -0.64328        3.00211
C          1.36917       -2.08076        2.98475
C          1.08250       -2.62657        4.38113
C         -0.27364       -2.24240        4.98253
S         -0.48806       -3.13357        6.54083
O         -0.59422       -4.55080        6.26120
O          0.47210       -2.61651        7.48237
O         -1.94542       -2.59202        6.99579
O          4.29538       -1.97372        2.04463
C          5.44925       -2.05167        2.92816
C          4.94060       -2.23021        4.33148
C          4.75181       -3.51081        4.86965
C          4.21149       -3.66852        6.14886
C          3.85266       -2.54691        6.90110
C          4.04439       -1.26451        6.37544
C          4.58635       -1.10924        5.09853
H          4.94402       -0.88667       -1.12051
H          4.34649       -2.50042       -0.63460
H          5.96294       -1.95458       -0.13692
H          4.95617       -0.16371        1.28834
H          2.25910       -1.43310        0.49796
H          2.81663        0.16786       -0.02451
H          3.88648        2.13155        1.06480
H          3.36256        3.20182        2.38272
H          1.15920        3.52034        1.31374
H          1.50315        2.27121        0.09767
H          3.75205        6.04062        1.97764
H          2.03765        5.80807        2.41152
H          2.57972        7.34863        1.73886
H          4.64912        6.08911       -0.99085
H          3.54079        7.42210       -1.37695
H          3.45664        5.90747       -2.30018
H         -0.12217        5.60806        0.11423
H          0.39804        5.67224       -1.58733
H          0.43970        7.13505       -0.58158
H          2.23961       -2.59602        2.56217
H          0.50557       -2.18165        2.30789
H          1.89729       -2.34121        5.05875
H          1.13187       -3.72083        4.27713
H         -1.11622       -2.53318        4.33972
H         -0.34541       -1.17587        5.22848
H         -2.57370       -3.33683        6.92130
H          6.03388       -1.12105        2.83549
H          6.08334       -2.89479        2.61265
H          5.03471       -4.38872        4.28461
H          4.06775       -4.66849        6.55930
H          3.41670       -2.67013        7.89198
H          3.77398       -0.38797        6.96485
H          4.75002       -0.10528        4.69731
