96

C          0.64711        0.10465       -0.09314
C          2.17266        0.19576       -0.00463
C          2.77175       -0.69147        1.09253
C          4.29788       -0.60196        1.19235
C          4.89688       -1.48765        2.28972
C          6.42237       -1.38848        2.39369
C          7.02301       -2.27057        3.49286
C          8.54739       -2.16208        3.60237
C          9.14678       -3.04363        4.70259
C         10.67067       -2.93210        4.81705
C         11.26623       -3.83614        5.90095
C         12.79049       -3.73034        6.01863
C         13.38018       -4.69984        7.04730
C         14.90560       -4.61207        7.15834
C         15.45709       -5.68166        8.11991
C         16.93152       -5.67237        8.30657
N         17.52329       -5.96885        9.43019
C         16.83136       -6.38462       10.67446
O         17.79162       -6.44723       11.67141
C         17.23704       -6.82939       12.95639
C         18.37947       -6.99863       13.94048
C         17.88320       -7.32501       15.35524
C         19.02619       -7.55874       16.34976
C         18.54141       -7.85522       17.77230
C         19.67855       -8.10302       18.76918
C         19.19036       -8.38688       20.19362
C         20.32309       -8.63060       21.19580
C         19.83446       -8.91044       22.62150
C         20.97222       -9.14355       23.61841
C         19.01169       -5.97859        9.34206
C         19.27131       -5.29157        7.99696
C         17.94381       -5.44221        7.20841
C         17.91148       -6.62563        6.25814
C         17.58057       -6.53386        4.96887
H          0.24887        0.75083       -0.88758
H          0.17335        0.41015        0.85182
H          0.32011       -0.92400       -0.30717
H          2.46990        1.24314        0.17437
H          2.61602       -0.08059       -0.97640
H          2.47788       -1.74089        0.91230
H          2.32552       -0.41793        2.06519
H          4.58988        0.44784        1.37245
H          4.74387       -0.87504        0.21963
H          4.61093       -2.53868        2.10730
H          4.44725       -1.21837        3.26178
H          6.70703       -0.33689        2.57476
H          6.87278       -1.65866        1.42224
H          6.74455       -3.32336        3.30897
H          6.56819       -2.00451        4.46337
H          8.82570       -1.10929        3.78605
H          9.00312       -2.42897        2.63251
H          8.87222       -4.09687        4.51546
H          8.68810       -2.78080        5.67200
H         10.94691       -1.88271        5.02118
H         11.12908       -3.18116        3.84379
H         10.99110       -4.88450        5.68950
H         10.80669       -3.59405        6.87508
H         13.06942       -2.69538        6.28209
H         13.24714       -3.92711        5.03285
H         13.09837       -5.73224        6.77519
H         12.92677       -4.51165        8.03595
H         15.20288       -3.61085        7.51011
H         15.35085       -4.74498        6.16105
H         15.20717       -6.68346        7.71806
H         14.94600       -5.61801        9.09202
H         16.35144       -7.36820       10.48916
H         16.04021       -5.63981       10.89209
H         16.67001       -7.77151       12.83732
H         16.53249       -6.04381       13.28670
H         18.97441       -6.07126       13.95675
H         19.04514       -7.79896       13.57961
H         17.23975       -8.22150       15.32530
H         17.24397       -6.50246       15.71968
H         19.68378       -6.67205       16.36457
H         19.65304       -8.39472       15.99350
H         17.87421       -8.73496       17.75476
H         17.92150       -7.01373       18.12854
H         20.35042       -7.22671       18.78163
H         20.29429       -8.94974       18.41795
H         18.51948       -9.26405       20.18071
H         18.57202       -7.54058       20.54150
H         20.99507       -7.75410       21.20747
H         20.94127       -9.47820       20.85025
H         19.16837       -9.78993       22.60988
H         19.21189       -8.06615       22.96327
H         21.59237      -10.00330       23.32327
H         20.58922       -9.34311       24.62849
H         21.63425       -8.26700       23.68166
H         19.34798       -7.02496        9.38529
H         19.42772       -5.45795       10.20976
H         20.11781       -5.73649        7.46350
H         19.49235       -4.22765        8.15069
H         17.69237       -4.53255        6.64574
H         18.20029       -7.59180        6.68472
H         17.29729       -5.58422        4.51053
H         17.59929       -7.40775        4.31810
