102

C          1.12193        0.77838      -11.86851
C          2.53306        1.35298      -11.72252
C          3.13152        1.14946      -10.32632
C          4.52795        1.75634      -10.16113
C          5.13224        1.53419       -8.77061
C          6.59188        1.98323       -8.66449
C          7.18702        1.82440       -7.26088
C          8.64916        2.28169       -7.19292
C          9.22593        2.20052       -5.78344
O         10.64182        2.51319       -5.72581
C         10.93336        3.85949       -5.85499
N         12.44267        3.97644       -6.00227
C         12.89294        3.07148       -7.15785
C         12.14073        3.24560       -8.47444
C         12.88569        2.45250       -9.56203
S         11.86921        2.02220      -10.99296
C         11.19488        0.42358      -10.48264
S         11.45199       -0.21375       -8.95694
N         10.48891       -0.18781      -11.45859
C         10.28444        0.41310      -12.79330
C         11.42359        0.19961      -13.80431
C         11.68416       -1.25142      -14.22311
C         12.75939       -1.36056      -15.30740
C          9.94531       -1.54455      -11.23500
C          8.55435       -1.60756      -10.59079
C          7.39130       -1.11591      -11.46201
C          6.02710       -1.51583      -10.89424
C         12.75533        5.43836       -6.29057
C         14.25041        5.73015       -6.37503
C         15.01413        5.23733       -5.13924
C         14.68715        3.76700       -4.84414
C         13.17694        3.51958       -4.69920
C         12.62967        4.18419       -3.42965
O         11.50363        3.45079       -2.95145
C         10.74287        4.15188       -2.00769
O         10.08246        5.21431       -2.68029
C          9.27172        6.03724       -1.82326
C          8.48496        6.95894       -2.73675
O          7.63918        6.23138       -3.62359
H          0.72220        0.94338      -12.87838
H          0.42581        1.24612      -11.15669
H          1.10765       -0.30516      -11.67855
H          2.51724        2.43121      -11.95614
H          3.19950        0.89311      -12.47281
H          3.17663        0.06865      -10.10348
H          2.45215        1.58294       -9.57140
H          4.48491        2.83926      -10.37051
H          5.20203        1.33221      -10.92506
H          5.06094        0.46475       -8.50682
H          4.52568        2.06761       -8.01864
H          6.67198        3.04050       -8.97366
H          7.20329        1.41114       -9.38439
H          7.11847        0.76878       -6.94769
H          6.57942        2.39869       -6.54045
H          8.70804        3.31560       -7.57538
H          9.26555        1.65202       -7.85572
H          9.16985        1.17420       -5.39820
H          8.68187        2.85452       -5.07739
H         10.64000        4.45204       -4.97202
H         10.50630        4.31534       -6.76455
H         12.75771        2.04319       -6.80354
H         13.96114        3.25895       -7.29724
H         12.06283        4.29815       -8.78453
H         11.12768        2.84038       -8.37914
H         13.25001        1.49350       -9.16017
H         13.73216        3.02097       -9.97319
H         10.09829        1.48982      -12.65782
H          9.35160       -0.01223      -13.18626
H         12.35128        0.64345      -13.41169
H         11.15813        0.79380      -14.69528
H         10.74687       -1.70573      -14.58811
H         11.99542       -1.84274      -13.34689
H         12.46996       -0.81195      -16.21563
H         12.93374       -2.40640      -15.59211
H         13.71775       -0.94614      -14.96152
H         10.66652       -2.07702      -10.60203
H          9.92094       -2.03636      -12.21671
H          8.57087       -1.07163       -9.62881
H          8.38823       -2.66935      -10.34108
H          7.49238       -1.53402      -12.47850
H          7.43936       -0.01988      -11.57502
H          5.92535       -2.61002      -10.85192
H          5.20311       -1.12837      -11.50807
H          5.88914       -1.13356       -9.87314
H         12.28342        6.01778       -5.48579
H         12.24008        5.69374       -7.22354
H         14.35967        6.81764       -6.49211
H         14.67300        5.28725       -7.28971
H         14.75993        5.86528       -4.27032
H         16.09433        5.35619       -5.29471
H         15.15652        3.44489       -3.90450
H         15.11133        3.11602       -5.62045
H         12.95660        2.44623       -4.63126
H         12.36011        5.24078       -3.58527
H         13.43433        4.16146       -2.67293
H         11.37446        4.55734       -1.18859
H         10.01784        3.42824       -1.59852
H          9.90673        6.61705       -1.12815
H          8.58499        5.40214       -1.23505
H          9.18615        7.60656       -3.29744
H          7.83399        7.60873       -2.13558
H          8.18418        5.52359       -4.00476
