66

C          2.26397       -1.33190        1.45029
C          3.15033       -0.11409        1.17791
C          3.26570        0.21516       -0.31508
C          4.11334        1.46710       -0.57757
N          4.33017        1.75499       -2.00255
C          3.49677        2.49911       -2.77078
O          3.61998        2.66658       -3.98598
C          2.30615        3.18750       -2.04751
N          1.70117        4.16940       -2.93893
C          0.84075        3.89488       -3.94992
C          0.30100        2.57871       -4.38396
C         -0.63043        2.68563       -5.59989
C         -1.22042        1.33807       -6.03140
N         -2.09981        1.54522       -7.16966
C         -2.86115        0.35865       -7.57635
C         -3.79669        0.66146       -8.72819
C         -4.28201        1.95067       -8.98082
C         -5.14401        2.21253      -10.04867
C         -5.53773        1.16954      -10.88908
C         -5.07540       -0.12557      -10.65387
C         -4.21601       -0.37942       -9.57952
O         -3.75092       -1.64357       -9.30354
N          0.56324        5.08406       -4.48731
N          1.22099        6.11525       -3.90194
C          1.93691        5.54534       -2.95025
C          2.82776        6.27429       -2.04441
C          4.15991        5.86592       -1.84731
C          4.99459        6.61453       -1.01794
C          4.51153        7.76563       -0.38796
C          3.19158        8.17857       -0.59283
C          2.34836        7.43998       -1.42098
C          5.44173        1.05855       -2.65548
H          2.21377       -1.55420        2.52409
H          2.64915       -2.22861        0.94338
H          1.23523       -1.16648        1.09715
H          4.15927       -0.29089        1.58653
H          2.75314        0.76209        1.71847
H          2.25743        0.35558       -0.74238
H          3.70502       -0.64194       -0.85057
H          5.10888        1.34773       -0.12449
H          3.66602        2.34303       -0.08567
H          2.61131        3.72066       -1.13987
H          1.54354        2.44886       -1.76449
H         -0.23084        2.12119       -3.53087
H          1.16240        1.92675       -4.60388
H         -0.06972        3.11146       -6.44990
H         -1.47515        3.36108       -5.38894
H         -1.82468        0.91985       -5.20854
H         -0.39811        0.61033       -6.21638
H         -1.56125        1.87902       -7.97281
H         -3.44542        0.02228       -6.70055
H         -2.21308       -0.49544       -7.85242
H         -3.97162        2.75789       -8.31660
H         -5.50492        3.22607      -10.22263
H         -6.20763        1.35738      -11.72864
H         -5.38199       -0.94815      -11.30533
H         -4.09958       -2.25669       -9.97091
H         -0.05218        5.26226       -5.27706
H          4.55860        5.00219       -2.38078
H          6.03179        6.30935       -0.87910
H          5.17008        8.34882        0.25612
H          2.81668        9.08026       -0.10869
H          1.31966        7.75783       -1.59096
H          5.27327       -0.02813       -2.66359
H          6.37333        1.26831       -2.11296
H          5.52364        1.41399       -3.68608
