76

C          8.28210       -2.97687       -4.91290
C          8.72029       -2.05778       -3.77123
C          8.34250       -2.59440       -2.38688
C          8.78689       -1.68705       -1.23622
C          8.42783       -2.23753        0.14758
C          8.92366       -1.34865        1.29370
C          8.54120       -1.82983        2.69450
S          9.28281       -3.49157        2.97124
C          9.00927       -3.67008        4.66183
N          8.49368       -2.85323        5.55451
N          8.52314       -3.52651        6.76748
C          9.04915       -4.69645        6.53413
O          9.38988       -4.87823        5.21652
C          9.29766       -5.78224        7.44558
N          9.83437       -6.98841        7.01435
C          9.94853       -7.84315        8.03624
N          9.49107       -7.19152        9.12556
C          9.07392       -5.90201        8.80832
C          8.51054       -4.96669        9.81962
C          9.45637       -4.66663       11.01563
C         10.75480       -3.94970       10.58715
C         10.58103       -2.54333       10.00364
C          8.68310       -3.90714       12.09995
C         10.48167       -9.23443        7.97017
C         10.74735       -9.72094        6.53780
O         10.70309       -9.00153        5.54967
O         11.03332      -11.01461        6.55195
C         11.34751      -11.66498        5.26008
C         12.84351      -11.67657        4.99905
C         13.16953      -12.45575        3.71667
C         14.67247      -12.54192        3.43088
C         14.99621      -13.32487        2.15409
C         16.49574      -13.41009        1.86300
H          8.56116       -2.56453       -5.89175
H          7.19169       -3.12226       -4.91153
H          8.74779       -3.96968       -4.82502
H          8.27145       -1.05970       -3.90717
H          9.81210       -1.90748       -3.81534
H          8.78784       -3.59629       -2.25308
H          7.24917       -2.74029       -2.33886
H          8.33286       -0.68844       -1.35970
H          9.87857       -1.53352       -1.29399
H          8.85483       -3.25143        0.24765
H          7.33383       -2.36104        0.22632
H          8.49897       -0.33717        1.18528
H         10.01764       -1.22981        1.23179
H          7.45422       -1.93133        2.81193
H          8.92404       -1.16586        3.47848
H         10.10823       -7.29615        6.06786
H          9.46178       -7.58302       10.06332
H          7.57346       -5.39858       10.21149
H          8.23158       -4.03916        9.30153
H          9.75907       -5.63711       11.45511
H         11.29204       -4.58129        9.85840
H         11.40929       -3.89612       11.47147
H          9.97149       -2.53876        9.08880
H         11.55948       -2.11881        9.74451
H         10.11254       -1.85808       10.72253
H          8.29600       -2.94992       11.72456
H          9.33138       -3.69230       12.96012
H          7.82577       -4.49182       12.46188
H          9.79172       -9.93690        8.46207
H         11.43228       -9.30693        8.52593
H         10.79233      -11.14170        4.47157
H         10.94833      -12.67875        5.38620
H         13.35739      -12.13745        5.85737
H         13.21143      -10.64196        4.91127
H         12.66169      -11.98201        2.85942
H         12.75649      -13.47617        3.79336
H         15.18094      -13.01522        4.28875
H         15.09029      -11.52326        3.35163
H         14.48048      -12.85377        1.30058
H         14.57794      -14.34177        2.23842
H         16.93629      -12.40933        1.74280
H         16.69251      -13.97268        0.94076
H         17.03339      -13.91297        2.68038
