46

C          3.94947        1.68231       -2.56935
C          3.37300        0.36099       -2.05350
C          4.39696       -0.78357       -2.08183
C          3.79122       -2.09178       -1.59518
O          4.74211       -3.20342       -1.75391
C          5.53499       -3.47755       -0.70435
O          5.51544       -2.90152        0.36527
C          6.46794       -4.62428       -1.02451
C          6.16004       -5.42959       -2.10115
N          6.95252       -6.48885       -2.45335
C          6.53697       -7.35849       -3.58577
C          5.78023       -8.58927       -3.09878
O          4.64455       -8.14964       -2.39559
C          3.84506       -9.23476       -1.88090
C          2.71209       -8.65400       -1.06136
C          8.05825       -6.78544       -1.75598
C          8.44603       -6.02781       -0.64253
C          7.63380       -4.90402       -0.24274
C          8.06006       -4.15392        0.88295
C          9.20704       -4.50544        1.56579
C          9.99609       -5.61890        1.16774
C          9.62455       -6.37151        0.07236
I         11.71657       -6.09597        2.26105
H          3.19242        2.47717       -2.54950
H          4.30431        1.58703       -3.60603
H          4.79846        2.01677       -1.95548
H          2.49632        0.08059       -2.66110
H          3.00157        0.49586       -1.02453
H          5.26215       -0.52470       -1.45070
H          4.77355       -0.92178       -3.10821
H          2.93337       -2.39556       -2.20855
H          3.49326       -2.04184       -0.54007
H          5.27835       -5.26743       -2.71301
H          7.43711       -7.64927       -4.14172
H          5.90209       -6.75039       -4.24091
H          6.43440       -9.21532       -2.45654
H          5.51525       -9.19624       -3.98712
H          4.48614       -9.89233       -1.26440
H          3.46309       -9.83409       -2.72743
H          3.09682       -8.06451       -0.21862
H          2.09291       -9.46496       -0.65590
H          2.06978       -8.01071       -1.67687
H          8.63779       -7.64235       -2.09936
H          7.46246       -3.30758        1.21223
H          9.51341       -3.91709        2.43075
H         10.21797       -7.22583       -0.25368
