110

C          1.76598        0.40446        1.87447
C          2.92954       -0.57521        2.04684
C          3.60070       -0.96005        0.72407
C          4.75115       -1.96097        0.87698
C          5.32337       -2.41594       -0.46739
C          6.36723       -3.53466       -0.37321
C          6.66014       -4.15536       -1.74103
C          7.63865       -5.33840       -1.67954
N          7.57034       -6.16314       -2.89775
C          6.66233       -7.14674       -3.05654
S          6.42171       -7.98333       -4.49425
S          5.75237       -7.51048       -1.54703
C          4.38551       -8.50022       -2.19427
C          3.31574       -7.62079       -2.85169
C          2.45243       -8.40276       -3.84802
C          1.55171       -7.48328       -4.69959
C          2.12835       -6.96069       -6.03611
C          2.35679       -8.13162       -6.99022
N          1.22859       -9.06702       -6.93662
C          0.21313       -9.00315       -6.06045
N         -0.86961       -9.79748       -6.26981
N          0.26590       -8.15947       -5.02634
C         -0.91846       -7.81235       -4.21204
C         -1.14065       -6.37284       -4.17841
C         -1.31775       -5.17849       -4.14522
C          3.41828       -6.14613       -5.93104
O          3.15204       -5.03871       -5.08113
C          4.11887       -4.05324       -4.97100
C          5.35396       -4.13811       -5.62391
C          6.28594       -3.09347       -5.54815
C          7.57459       -3.15593       -6.32907
C          5.96400       -1.97850       -4.76749
C          4.74306       -1.92029       -4.09539
C          3.78552       -2.93804       -4.17354
C          2.45607       -2.76203       -3.45172
C          1.30459       -2.48359       -4.43813
C          2.09381       -3.89767       -2.47653
C          8.44731       -5.75710       -4.00425
C          9.78669       -6.49821       -4.02450
C         10.66598       -6.02668       -5.18708
C         12.01238       -6.75317       -5.26868
C         12.89722       -6.26855       -6.42185
C         14.24756       -6.98783       -6.50532
C         15.14011       -6.49109       -7.64860
C         16.49088       -7.20839       -7.71900
H          1.29751        0.64832        2.83763
H          0.98424       -0.01435        1.22248
H          2.10151        1.34870        1.42081
H          2.57018       -1.49061        2.54709
H          3.68252       -0.13892        2.72421
H          3.96829       -0.04854        0.22002
H          2.84019       -1.39138        0.04662
H          4.38762       -2.84552        1.42978
H          5.54839       -1.52203        1.50098
H          5.75161       -1.55325       -1.00587
H          4.49176       -2.77182       -1.09655
H          5.99079       -4.32522        0.29962
H          7.29328       -3.15356        0.08989
H          7.04006       -3.39378       -2.43891
H          5.71490       -4.51541       -2.17586
H          7.43574       -5.96925       -0.80245
H          8.67801       -4.99659       -1.57264
H          4.00308       -9.05834       -1.32738
H          4.81815       -9.20915       -2.91634
H          3.81830       -6.79657       -3.37153
H          2.68126       -7.15261       -2.08372
H          1.81296       -9.11887       -3.30715
H          3.10914       -9.00747       -4.49463
H          1.26300       -6.60576       -4.10623
H          1.35357       -6.29841       -6.45722
H          3.27827       -8.67581       -6.72637
H          2.46264       -7.77379       -8.02433
H          1.26319       -9.87664       -7.54691
H         -0.93755      -10.32426       -7.13177
H         -1.40111      -10.15503       -5.48647
H         -0.77960       -8.20136       -3.18877
H         -1.80476       -8.30435       -4.63495
H         -1.46994       -4.11892       -4.11093
H          3.69541       -5.79657       -6.94262
H          4.25751       -6.75432       -5.54167
H          5.61112       -5.02409       -6.20339
H          7.79729       -4.17464       -6.67033
H          8.42774       -2.80083       -5.73465
H          7.51778       -2.51405       -7.22157
H          6.66766       -1.14841       -4.68500
H          4.51154       -1.04548       -3.48420
H          2.58284       -1.85194       -2.84215
H          1.09847       -3.36254       -5.06542
H          1.54809       -1.64352       -5.10149
H          0.38531       -2.22412       -3.89160
H          1.77194       -4.79863       -3.01204
H          1.26886       -3.58299       -1.82160
H          2.94430       -4.17203       -1.83806
H          8.60533       -4.67367       -3.90432
H          7.90321       -5.94000       -4.93896
H          9.59240       -7.57869       -4.11078
H         10.31385       -6.34491       -3.06797
H         10.84293       -4.93990       -5.09729
H         10.11815       -6.16572       -6.13601
H         11.83440       -7.83776       -5.37305
H         12.55360       -6.62632       -4.31476
H         13.06922       -5.18255       -6.31644
H         12.35597       -6.39650       -7.37606
H         14.07737       -8.07298       -6.62062
H         14.78458       -6.86832       -5.54743
H         15.30450       -5.40611       -7.53324
H         14.60645       -6.61412       -8.60669
H         17.06329       -7.07453       -6.78884
H         17.10777       -6.82831       -8.54491
H         16.36110       -8.29017       -7.87270
