86

C          1.90631        0.71608        2.47242
C          3.15589        0.74351        1.58844
C          3.72538       -0.64992        1.29963
C          4.99634       -0.63195        0.44398
C          5.57791       -2.02554        0.18625
C          6.88887       -2.01239       -0.60689
C          7.47138       -3.41132       -0.83033
C          8.81621       -3.41501       -1.56542
C          9.39845       -4.82305       -1.72193
C         10.75401       -4.85709       -2.43857
C         11.31533       -6.28763       -2.50855
C         12.62599       -6.33523       -3.26938
N         13.22957       -7.78095       -3.23903
C         12.30375       -8.79342       -3.72229
N         11.84819       -9.76051       -3.00629
N         10.93481      -10.42068       -3.82431
C         10.91523       -9.77047       -4.96856
O         11.80081       -8.68279       -4.96816
S          9.99443      -10.01015       -6.39705
C          8.93871      -11.42415       -5.87408
C          7.84767      -11.60145       -6.93126
C          6.93217      -12.78997       -6.60661
C          5.79378      -12.94795       -7.62103
C          4.87377      -14.13677       -7.32614
C          3.71020      -14.26567       -8.31612
C          2.80186      -15.46380       -8.03023
C         14.57057       -7.85908       -3.79608
N         15.63115       -8.02827       -3.08729
N         16.68500       -8.00151       -3.99713
C         16.15187       -7.81561       -5.18576
O         14.75382       -7.70596       -5.12256
S         16.86743       -7.69590       -6.74150
C         18.63867       -7.90698       -6.29183
C         19.46183       -7.83683       -7.57938
C         20.96445       -7.98053       -7.29154
C         21.81240       -7.91286       -8.56462
H          1.52554        1.72848        2.66445
H          2.11740        0.25080        3.44698
H          1.09541        0.14016        2.00198
H          3.93451        1.35860        2.07080
H          2.92338        1.24635        0.63442
H          2.95453       -1.26320        0.80005
H          3.93989       -1.15891        2.25622
H          5.75893       -0.00659        0.94087
H          4.78380       -0.13816       -0.52048
H          4.83249       -2.64141       -0.34703
H          5.74799       -2.53066        1.15354
H          7.62948       -1.39081       -0.07360
H          6.72686       -1.51965       -1.58165
H          6.74587       -4.02530       -1.39240
H          7.59444       -3.91066        0.14696
H          9.53459       -2.78122       -1.01706
H          8.69689       -2.95047       -2.55968
H          8.68263       -5.45814       -2.27208
H          9.50670       -5.28216       -0.72391
H         11.47087       -4.20377       -1.91403
H         10.64698       -4.44935       -3.45778
H         10.57321       -6.94326       -2.99100
H         11.46208       -6.67151       -1.48440
H         13.41180       -5.71223       -2.82160
H         12.52409       -6.08680       -4.33334
H         13.36740       -8.03538       -2.24084
H          8.52448      -11.18256       -4.88693
H          9.58211      -12.30887       -5.78411
H          8.30563      -11.75152       -7.92324
H          7.24717      -10.67950       -6.99698
H          6.50808      -12.66099       -5.59616
H          7.53044      -13.71622       -6.57301
H          6.21933      -13.05727       -8.63376
H          5.19628      -12.01990       -7.64242
H          4.47165      -14.04379       -6.30176
H          5.46585      -15.06874       -7.33429
H          4.11196      -14.34280       -9.34073
H          3.11435      -13.33722       -8.29529
H          3.35903      -16.41070       -8.08627
H          1.97585      -15.52208       -8.75180
H          2.35994      -15.39987       -7.02470
H         18.74228       -8.87561       -5.78555
H         18.90291       -7.10694       -5.58813
H         19.27575       -6.87773       -8.09003
H         19.14126       -8.63287       -8.27151
H         21.14613       -8.93667       -6.77420
H         21.27783       -7.18761       -6.59279
H         21.54957       -8.71863       -9.26517
H         22.88043       -8.01079       -8.33087
H         21.67317       -6.95622       -9.08891
