56

C         -2.16087        2.75082        0.06571
C         -1.43318        1.47246        0.38984
C         -0.04892        1.44227        0.58127
C          0.60593        0.23862        0.84601
C         -0.06506       -0.98732        0.93691
C         -1.45940       -0.93291        0.74959
C         -2.13274        0.25861        0.48427
O         -2.14475       -2.15631        0.85797
C         -3.52352       -2.16622        0.59001
P         -3.98074       -3.94356        0.61474
C         -3.50165       -4.64440        2.22304
C         -3.59590       -6.17108        2.06411
O         -4.02105       -6.57524        0.97684
C         -3.20158       -7.05636        3.16588
C         -2.64560       -6.56301        4.36362
C         -2.28385       -7.44488        5.37872
C         -2.47766       -8.82045        5.21018
C         -3.03100       -9.31928        4.02327
C         -3.38939       -8.44589        3.00356
C         -5.73450       -4.11751        0.17866
C         -5.99540       -3.89463       -1.33453
C         -7.45523       -3.89331       -1.62533
C         -8.12086       -4.77677       -2.38009
F         -7.53299       -5.80570       -2.98010
F         -9.41451       -4.72675       -2.62172
F         -8.15405       -2.87769       -1.05129
C          0.72843       -2.25676        1.21849
C          0.36890       -2.91566        2.56363
C          0.69382       -3.26361        0.05291
H         -1.63989        3.62319        0.47925
H         -3.18612        2.74651        0.45925
H         -2.22786        2.89645       -1.02374
H          0.52617        2.36748        0.52470
H          1.68820        0.24230        0.99123
H         -3.21535        0.27419        0.35137
H         -3.77568       -1.76092       -0.40852
H         -4.12700       -1.62336        1.34306
H         -3.17656       -4.53914       -0.37729
H         -4.17405       -4.25973        3.00593
H         -2.48657       -4.28526        2.45551
H         -2.48398       -5.49366        4.50675
H         -1.84908       -7.06338        6.30229
H         -2.19612       -9.50804        6.00846
H         -3.18148      -10.39177        3.89959
H         -3.82016       -8.81454        2.07274
H         -6.29105       -3.38731        0.78703
H         -6.04264       -5.12667        0.48004
H         -5.51209       -4.68582       -1.92333
H         -5.57267       -2.93096       -1.66603
H          1.77425       -1.92129        1.31008
H         -0.64817       -3.33319        2.54905
H          0.42101       -2.19231        3.38799
H          1.06449       -3.73702        2.78499
H         -0.30802       -3.69464       -0.08613
H          1.39153       -4.09110        0.24321
H          0.98801       -2.78472       -0.89028
