52

C          2.65689        2.42944       12.19214
C          4.12188        2.10233       11.89104
C          4.50785        2.37043       10.43285
C          5.98215        2.09027       10.12098
C          6.33268        2.36953        8.65439
C          7.80255        2.14901        8.35417
O          8.01069        2.47801        6.93782
C          9.26733        2.67756        6.52566
O         10.26656        2.56458        7.21569
C          9.25774        3.08996        5.05797
C         10.63169        3.26475        4.39130
N         10.40317        3.69736        3.03814
N         11.44570        2.00590        4.51180
C         12.57662        2.20205        5.21264
N         13.47745        1.26242        5.50748
N         12.73596        3.49758        5.53252
C         11.57169        4.28451        5.11429
C         13.97372        4.12478        5.98819
C         14.40027        3.68356        7.39459
O         14.55247        2.50731        7.69982
O         14.62030        4.72426        8.18695
C         15.09661        4.43924        9.55804
C         13.92856        4.24069       10.50252
H          2.40674        2.22214       13.24134
H          1.97632        1.83435       11.56515
H          2.43774        3.49095       12.00218
H          4.32182        1.04436       12.13145
H          4.77632        2.69238       12.55510
H          4.27994        3.42146       10.18334
H          3.87198        1.75919        9.76915
H          6.21886        1.04111       10.36834
H          6.61704        2.70990       10.77788
H          6.07362        3.41055        8.40337
H          5.72757        1.72700        7.99560
H          8.11185        1.10380        8.50604
H          8.45866        2.79248        8.95726
H          8.70829        4.03868        4.96599
H          8.65981        2.35504        4.49451
H          9.72805        3.11671        2.54107
H         11.26217        3.74289        2.49043
H         11.00005        1.09417        4.49168
H         13.30379        0.30187        5.23811
H         14.08145        1.45514        6.32664
H         11.87086        5.07208        4.40787
H         11.08751        4.74824        5.98393
H         13.82901        5.20944        5.96496
H         14.80244        3.87551        5.30294
H         15.68592        5.32914        9.80621
H         15.75055        3.55988        9.51204
H         13.26546        5.11506       10.50361
H         14.31566        4.10803       11.52244
H         13.34728        3.34684       10.24284
