56

C          2.62755        1.58687        2.26098
C          3.79359        1.33595        1.30030
C          3.42464        0.86983       -0.12285
C          2.49752        1.88040       -0.85215
C          1.00002        1.57498       -0.72124
N          0.22831        2.89698       -0.61994
C         -1.27758        2.75372       -0.55478
C         -1.75770        1.93426       -1.74849
N         -1.04078        0.66378       -1.71360
C          0.40357        0.78704       -1.90756
C          1.02319       -0.58128       -2.01082
C          1.77358       -0.97955       -3.04002
C         -3.27735        1.73655       -1.68446
C         -3.86118        1.00115       -2.89802
C         -5.38996        0.91144       -2.84511
C         -5.97271        0.09050       -4.00732
N         -7.41897       -0.01294       -3.95513
C         -8.12475       -0.91874       -3.18908
C         -9.46989       -0.62228       -3.30161
C         -9.58530        0.50741       -4.15956
C         -8.30651        0.86596       -4.54286
C          4.68615        0.61278       -0.95493
H          2.99730        1.83572        3.26386
H          1.97826        0.70427        2.36231
H          1.99885        2.44007        1.95214
H          4.45351        0.57356        1.74159
H          4.40652        2.25072        1.22141
H          2.88012       -0.08643       -0.03746
H          2.74994        1.91239       -1.92359
H          2.71466        2.89187       -0.46349
H          0.76524        1.04877        0.21401
H          0.47432        3.47183       -1.44025
H          0.57614        3.40582        0.20425
H         -1.70270        3.76594       -0.54486
H         -1.50730        2.24218        0.38904
H         -1.52281        2.51553       -2.67398
H         -1.42774        0.00314       -2.38696
H          0.65851        1.35749       -2.83261
H          0.79806       -1.26401       -1.18589
H          1.99527       -0.31881       -3.88089
H          2.19208       -1.98478       -3.08154
H         -3.75070        2.72900       -1.60540
H         -3.52576        1.18919       -0.76049
H         -3.45212       -0.02282       -2.95607
H         -3.54905        1.51350       -3.82465
H         -5.83006        1.92118       -2.86465
H         -5.70653        0.45151       -1.89543
H         -5.55232       -0.92769       -3.99907
H         -5.69632        0.54171       -4.97260
H         -7.61077       -1.70326       -2.64221
H        -10.28092       -1.17069       -2.83357
H        -10.50240        0.99249       -4.47727
H         -7.95299        1.65778       -5.19575
H          5.25077        1.54287       -1.12162
H          4.43368        0.18893       -1.93698
H          5.35594       -0.09329       -0.44658
