104

C          0.82452        0.65960        0.40348
C          2.27036        1.00524        0.70322
O          3.15406        0.59458       -0.38991
P          3.83585       -0.85565       -0.41630
O          3.58723       -1.69361        0.78649
O          3.40071       -1.51780       -1.81791
C          2.10756       -2.17909       -1.93479
C          2.16078       -3.11453       -3.12446
C          5.59096       -0.52929       -0.74895
C          6.35145       -1.84527       -1.02185
C          7.75493       -1.83439       -0.39900
C          8.73621       -2.97731       -0.68262
C          9.16678       -3.29395       -2.11794
C          9.84165       -4.69914       -2.04742
C          9.53545       -5.20135       -0.61600
N          8.37656       -4.37400       -0.13685
C          7.03231       -4.93095       -0.48723
C          6.15252       -4.72177        0.77479
O          6.75192       -4.36347        1.79253
C          4.71285       -4.95936        0.70924
C          3.93119       -4.64676        1.83992
C          2.55791       -4.85013        1.80979
C          1.95225       -5.37057        0.66041
C          2.71941       -5.68154       -0.46886
C          4.09399       -5.47008       -0.45019
C         11.35546       -4.71821       -2.28882
C         11.79048       -4.43405       -3.72323
O         13.19671       -4.57476       -3.74360
C         13.80418       -4.20938       -4.98106
C         15.30138       -4.43306       -4.81241
O         15.92605       -3.88770       -5.96566
C         17.30313       -3.89396       -6.01111
C         17.87867       -3.25501       -7.11811
C         19.26021       -3.20405       -7.24897
C         20.12409       -3.78684       -6.30032
C         19.52219       -4.41185       -5.20352
C         18.13084       -4.47467       -5.04742
C         21.64925       -3.68325       -6.46936
C         22.11688       -4.15418       -7.88436
C         22.05554       -5.63306       -8.37747
C         23.15839       -6.50962       -7.74686
C         20.68633       -6.30077       -8.14858
C         22.32082       -5.57790       -9.89848
C         22.02244       -2.17982       -6.37003
C         22.40675       -4.40779       -5.34224
H          0.17804        1.05956        1.19747
H          0.67695       -0.42827        0.36717
H          0.50253        1.09676       -0.55093
H          2.61371        0.52777        1.63129
H          2.41929        2.08974        0.77974
H          1.33659       -1.40457       -2.06896
H          1.90444       -2.72241       -0.99969
H          2.37114       -2.56623       -4.05183
H          1.19498       -3.62585       -3.24076
H          2.93870       -3.87758       -2.98533
H          5.95914       -0.03912        0.16563
H          5.69618        0.19244       -1.56969
H          6.38993       -2.02043       -2.10696
H          5.75908       -2.66292       -0.59100
H          7.65459       -1.72981        0.69312
H          8.28946       -0.92876       -0.73146
H          9.64479       -2.74395       -0.10354
H          9.85628       -2.51941       -2.47693
H          8.30914       -3.29917       -2.80457
H          9.35504       -5.36703       -2.77429
H         10.37442       -4.99521        0.06310
H          9.28771       -6.26619       -0.54839
H          8.29359       -4.31846        0.91543
H          7.13839       -6.00629       -0.68614
H          6.62666       -4.45220       -1.38217
H          4.41832       -4.22696        2.71869
H          1.95239       -4.59343        2.67853
H          0.87382       -5.53297        0.64170
H          2.24160       -6.08713       -1.36043
H          4.67870       -5.71456       -1.33842
H         11.75492       -5.70772       -2.01321
H         11.84695       -3.99012       -1.62130
H         11.49715       -3.41186       -4.03962
H         11.30953       -5.14438       -4.42776
H         13.61011       -3.14539       -5.21346
H         13.40713       -4.82086       -5.81247
H         15.51943       -5.51096       -4.71064
H         15.64602       -3.92234       -3.89552
H         17.22541       -2.79968       -7.86309
H         19.67225       -2.69674       -8.12241
H         20.13760       -4.87926       -4.43563
H         17.71812       -4.98022       -4.17530
H         23.16661       -3.82953       -7.98926
H         21.55929       -3.54986       -8.61793
H         22.97718       -6.71980       -6.68589
H         24.14597       -6.03190       -7.83145
H         23.21281       -7.47848       -8.26495
H         20.45407       -6.41802       -7.08196
H         20.68035       -7.30289       -8.60332
H         19.86900       -5.72215       -8.60137
H         23.29229       -5.11003      -10.11878
H         21.54330       -4.99679      -10.41646
H         22.33140       -6.58913      -10.33076
H         21.56916       -1.59306       -7.18096
H         23.11286       -2.04770       -6.42742
H         21.67393       -1.75921       -5.41618
H         22.12616       -5.46396       -5.24654
H         22.22589       -3.92327       -4.37169
H         23.48802       -4.36711       -5.53151
