61

Br         8.65820        8.73860        4.35556
C          7.20963        7.39322        4.48436
C          5.87259        7.93699        4.00905
C          5.80679        8.40229        2.54957
N          6.07203        7.34526        1.56261
C          5.14342        6.43330        1.03371
C          3.71531        6.37538        1.45001
C          2.85136        5.43568        0.59422
C          1.39352        5.37886        1.07653
C          0.65506        6.72185        1.02985
C         -0.80794        6.65405        1.48203
C         -1.46199        8.03858        1.53606
C         -2.88935        8.05707        2.09188
C         -3.44000        9.47934        2.24239
C         -4.84296        9.55812        2.85230
C         -5.31587       10.99811        3.07838
C         -6.70572       11.10959        3.71442
C         -7.13957       12.55689        3.96200
N          5.70865        5.66999        0.13526
N          7.01858        6.07656        0.09876
C          7.26016        7.09983        0.93689
N          8.41096        7.77201        1.10545
C          9.68181        7.33284        0.49764
C          9.59050        7.12400       -0.94227
C          9.51882        6.90813       -2.12968
H          7.18022        7.12377        5.54402
H          7.56381        6.53001        3.90890
H          5.57141        8.78950        4.63557
H          5.12152        7.14731        4.18002
H          6.51882        9.21886        2.36495
H          4.80809        8.80105        2.33224
H          3.30433        7.39832        1.41983
H          3.66573        6.06651        2.50992
H          3.29019        4.42778        0.60956
H          2.88806        5.77259       -0.45364
H          1.36169        4.97558        2.10403
H          0.85860        4.64641        0.45213
H          0.70480        7.13060        0.00492
H          1.16831        7.45900        1.67332
H         -0.85843        6.18677        2.48117
H         -1.37669        5.99146        0.80790
H         -1.45560        8.48664        0.52696
H         -0.83391        8.70028        2.16033
H         -2.90469        7.55462        3.07518
H         -3.55305        7.46474        1.43860
H         -3.44125        9.97756        1.25689
H         -2.74442       10.06363        2.87155
H         -4.85335        9.01626        3.81458
H         -5.56069        9.03005        2.20065
H         -5.31164       11.54019        2.11602
H         -4.58311       11.52093        3.71910
H         -6.71345       10.55421        4.66772
H         -7.44414       10.60719        3.06715
H         -6.43985       13.07304        4.63647
H         -8.13777       12.60787        4.41775
H         -7.17382       13.12985        3.02319
H          7.65115        5.72714       -0.61952
H          8.50952        8.31321        1.97406
H         10.04776        6.41079        0.98498
H         10.41545        8.12334        0.71226
H          9.47921        6.74167       -3.18790
