76

C          0.80998        6.38286       12.79497
C          2.23148        5.91772       13.11657
C          3.03073        5.51413       11.87323
C          4.44841        5.02881       12.18953
C          5.23909        4.59651       10.95077
C          6.64058        4.07392       11.28523
C          7.42396        3.60787       10.04911
C          8.76276        3.01633       10.45387
O          9.47581        2.45982        9.28243
C         10.43959        3.18436        8.73531
O         10.80227        4.29254        9.12432
C         11.03637        2.45807        7.52899
C         12.42180        2.88748        7.10652
N         12.90176        4.03442        7.59913
C         14.13910        4.54204        7.32169
C         15.00737        3.88464        6.48351
C         14.55277        2.65032        5.89721
C         13.23698        2.14974        6.21232
C         12.79317        0.93969        5.61148
C         13.60857        0.25265        4.74230
C         14.91210        0.72447        4.42416
C         15.35683        1.90450        5.00300
C         15.79318       -0.06787        3.48578
C         16.34811       -1.31232        4.14339
C         17.64928       -1.58288        4.25934
C         16.37290        4.45053        6.16590
C         16.84556        5.65323        6.99503
C         17.23185        5.31480        8.44126
C         17.67223        6.53729        9.25266
C         18.07303        6.19828       10.69154
C         18.48709        7.42023       11.51757
C         18.88849        7.06722       12.95109
H          0.26188        6.65939       13.70581
H          0.23738        5.59112       12.28960
H          0.81779        7.26060       12.13175
H          2.19175        5.06344       13.81317
H          2.77037        6.71897       13.64972
H          3.08141        6.36996       11.17759
H          2.48570        4.71853       11.33554
H          4.39238        4.18331       12.89714
H          4.99991        5.82780       12.71501
H          5.32024        5.44508       10.25004
H          4.67807        3.81043       10.41668
H          6.55145        3.23583       11.99748
H          7.21045        4.86134       11.80685
H          7.58371        4.45465        9.36285
H          6.84239        2.84840        9.50309
H          8.63806        2.14696       11.11141
H          9.41656        3.75507       10.93319
H         10.33557        2.61266        6.68895
H         11.01822        1.37929        7.73008
H         12.24993        4.51159        8.26766
H         14.37327        5.48337        7.81206
H         11.79592        0.55674        5.82673
H         13.24807       -0.66782        4.27967
H         16.35339        2.26782        4.75350
H         16.61881        0.55998        3.12310
H         15.19208       -0.36031        2.60719
H         15.61035       -2.02263        4.53068
H         18.41406       -0.90241        3.87855
H         17.99681       -2.50523        4.72413
H         16.37716        4.71705        5.09448
H         17.11403        3.64002        6.26679
H         16.09033        6.45777        6.97439
H         17.72416        6.07792        6.48579
H         18.04773        4.57166        8.42522
H         16.39309        4.82072        8.96257
H         16.85690        7.28252        9.26572
H         18.51957        7.02686        8.74214
H         18.90276        5.47016       10.67733
H         17.23202        5.68876       11.19527
H         17.65635        8.14583       11.53324
H         19.32515        7.92992       11.01361
H         18.05631        6.59307       13.49279
H         19.18593        7.96081       13.51611
H         19.73618        6.36610       12.96654
