71

C          9.85712        6.20401        5.67955
C          9.50478        5.12892        4.64947
C         10.07605        5.41514        3.25757
C          9.72833        4.34630        2.21759
C         10.29934        4.63849        0.82736
C          9.96080        3.57054       -0.21688
C         10.53934        3.87455       -1.60140
C         10.22846        2.80607       -2.65343
C         10.81922        3.13087       -4.02893
C         10.55414        2.04824       -5.08102
C         11.04260        2.40306       -6.49419
C         12.56193        2.58275       -6.59637
C         13.06692        2.93894       -7.99823
N         12.82240        1.88588       -9.00205
C         13.34258        0.65083       -9.05355
N         14.41715        0.20210       -8.39361
C         15.57916        0.99696       -7.95624
C         16.80598        0.08743       -7.83665
C         18.02608        0.87942       -7.38688
Br        19.57911       -0.29514       -7.20118
N         12.60954       -0.15812       -9.86295
C         11.48695        0.59727      -10.44668
C         11.86634        2.06125      -10.10650
C         12.57372        2.75797      -11.29087
O         13.77110        2.67512      -11.47792
O         11.67975        3.38501      -12.06046
C         12.19828        4.04535      -13.27518
C         12.69480        5.44292      -12.96450
H          9.43477        5.97117        6.66656
H          9.47091        7.18827        5.37554
H         10.94685        6.29935        5.79786
H          8.40843        5.03135        4.57730
H          9.87343        4.14904        4.99713
H         11.17402        5.51199        3.32827
H          9.70857        6.39657        2.90896
H          8.63074        4.24843        2.14794
H         10.09811        3.36550        2.56502
H         11.39663        4.74092        0.89904
H          9.92682        5.61808        0.47951
H          8.86437        3.46701       -0.29312
H         10.33473        2.59062        0.12826
H         11.63438        3.99269       -1.51825
H         10.15605        4.84991       -1.94934
H          9.13539        2.68394       -2.74465
H         10.61570        1.83084       -2.30995
H         11.90475        3.29214       -3.91368
H         10.40429        4.09099       -4.38428
H          9.47131        1.85083       -5.12812
H         11.02016        1.09999       -4.76064
H         10.54747        3.33272       -6.82586
H         10.71809        1.60983       -7.18943
H         13.06952        1.67132       -6.23723
H         12.89227        3.39580       -5.93228
H         14.13525        3.18998       -7.98288
H         12.54659        3.83094       -8.37264
H         14.53367       -0.80753       -8.37561
H         15.36850        1.47301       -6.98566
H         15.76181        1.78446       -8.70121
H         17.01418       -0.38841       -8.80705
H         16.60447       -0.71533       -7.10936
H         17.88154        1.34314       -6.40450
H         18.31454        1.64622       -8.11420
H         13.06268       -0.90138      -10.38453
H         10.53978        0.30456       -9.97285
H         11.41488        0.41825      -11.52538
H         10.99530        2.64051       -9.78007
H         11.33225        4.05441      -13.94667
H         12.98956        3.41069      -13.69376
H         11.90584        6.05157      -12.50429
H         12.99621        5.93114      -13.90133
H         13.56886        5.41833      -12.30179
