72

C          4.18375        8.02958       -7.99186
C          5.55711        7.82023       -7.34842
C          5.50255        7.73872       -5.81887
C          6.86834        7.51736       -5.16000
C          6.79618        7.42225       -3.63282
C          8.14742        7.16259       -2.95743
C          8.03988        7.02953       -1.43511
C          9.36455        6.70411       -0.73655
C          9.19713        6.51615        0.77584
C         10.44356        6.05639        1.50894
O         11.44358        7.10216        1.46491
C         12.60508        6.75657        2.18026
N         13.52783        7.88964        2.15101
C         14.09643        8.25332        0.95769
N         13.80678        9.34212        0.18733
C         12.79531       10.37780        0.44509
C         13.38484       11.56057        1.21463
O         14.56001       11.93917        0.53822
C         15.09953       13.20779        0.94095
C         16.47874       13.36623        0.33965
O         16.37650       13.41600       -1.07083
C         17.63858       13.62885       -1.69571
C         14.67250        9.30561       -0.87632
N         15.44593        8.24904       -0.82944
N         15.09827        7.61202        0.32904
C         15.78829        6.36351        0.73305
C         15.40189        5.22520       -0.24098
O         16.03487        5.29777       -1.49977
C         17.29256        6.60097        0.84563
H          4.25481        8.07838       -9.08698
H          3.71884        8.96528       -7.64727
H          3.49595        7.20826       -7.74083
H          6.23268        8.64075       -7.64488
H          6.01270        6.89665       -7.74418
H          4.82088        6.92151       -5.52352
H          5.05031        8.66446       -5.42096
H          7.55119        8.33682       -5.44660
H          7.32066        6.59335       -5.56157
H          6.09529        6.61602       -3.35388
H          6.35863        8.35214       -3.22873
H          8.84991        7.97667       -3.21095
H          8.59045        6.24035       -3.37298
H          7.30720        6.23934       -1.19527
H          7.62242        7.96092       -1.01379
H         10.09873        7.50291       -0.93700
H          9.78895        5.78168       -1.17110
H          8.41974        5.75726        0.96466
H          8.83186        7.44604        1.24217
H         10.85993        5.14116        1.04602
H         10.21324        5.82912        2.56591
H         13.10050        5.87232        1.73977
H         12.38514        6.53945        3.24102
H         13.17410        8.68319        2.68276
H         11.95460        9.91141        0.97608
H         12.43613       10.70856       -0.53733
H         13.60101       11.28632        2.26891
H         12.62708       12.36657        1.23217
H         15.18169       13.25635        2.04236
H         14.43187       14.01841        0.59888
H         17.12643       12.52340        0.65714
H         16.92574       14.29819        0.74093
H         17.46062       13.64838       -2.77681
H         18.34941       12.81607       -1.45922
H         18.08516       14.59036       -1.38572
H         14.70978       10.07203       -1.64342
H         15.36935        6.12758        1.72233
H         14.29859        5.18986       -0.33428
H         15.72690        4.27748        0.21200
H         15.78708        6.13038       -1.93722
H         17.72842        6.86132       -0.12511
H         17.77042        5.67648        1.19402
H         17.51198        7.39739        1.56783
