107

C          0.44459       -0.61143        0.33914
C          1.97291       -0.52337        0.35097
C          2.52429        0.63526       -0.48810
C          4.05179        0.74726       -0.45363
C          4.60687        1.89727       -1.30043
C          6.13335        2.01739       -1.24754
C          6.69325        3.16056       -2.10034
C          8.21888        3.28627       -2.03257
C          8.78296        4.42382       -2.89000
C         10.30670        4.56202       -2.80419
C         10.86794        5.70321       -3.65849
C         12.38813        5.86587       -3.55342
C         12.93553        7.02268       -4.39606
C         14.44487        7.24054       -4.24620
C         14.97458        8.41365       -5.07803
C         16.46304        8.70198       -4.85750
C         16.98315        9.88485       -5.68216
C         18.45191       10.21729       -5.39975
C         18.96709       11.40445       -6.21932
C         20.44533       11.72932       -5.89636
C         20.98511       12.88696       -6.65910
N         21.05194       14.15785       -6.22087
C         21.56053       14.99104       -7.19624
C         21.82398       14.20444       -8.28602
N         21.44778       12.90171       -7.92987
C         21.58712       11.70329       -8.76831
C         22.91839       10.96318       -8.52573
O         22.97461        9.85245       -9.37751
Si        22.66895        8.25549       -8.88430
C         23.95271        7.74608       -7.61460
C         20.94749        8.16542       -8.11623
C         22.77822        7.26392      -10.45925
C         22.38398       14.53414       -9.63075
C         22.77144       16.00661       -9.80255
O         22.48350       16.90079       -9.03159
O         23.45791       16.15301      -10.94107
C         23.86882       17.52562      -11.27326
C         24.66430       17.47697      -12.56245
C         25.12336       18.87683      -12.99595
C         25.93826       18.85581      -14.29148
H          0.08392       -1.45790        0.94001
H          0.05937       -0.74227       -0.68350
H         -0.01119        0.30342        0.74730
H          2.39981       -1.47170       -0.01834
H          2.32821       -0.41917        1.39056
H          2.08116        1.58333       -0.13424
H          2.18833        0.51946       -1.53406
H          4.49514       -0.20428       -0.79729
H          4.38353        0.87198        0.59248
H          4.15505        2.84782       -0.96533
H          4.28655        1.76604       -2.34926
H          6.58553        1.06431       -1.57474
H          6.45120        2.15562       -0.19885
H          6.23497        4.11303       -1.77986
H          6.38438        3.01731       -3.15098
H          8.67769        2.33177       -2.34588
H          8.52508        3.43578       -0.98200
H          8.31420        5.37636       -2.58552
H          8.48879        4.26772       -3.94295
H         10.77806        3.61083       -3.10832
H         10.59855        4.71866       -1.75066
H         10.38218        6.65013       -3.36314
H         10.58962        5.54001       -4.71466
H         12.88075        4.92507       -3.85609
H         12.66421        6.02350       -2.49572
H         12.40879        7.95278       -4.11834
H         12.69390        6.84697       -5.45916
H         14.98186        6.31768       -4.52768
H         14.68149        7.41411       -3.18151
H         14.39262        9.32038       -4.83544
H         14.79200        8.21638       -6.14899
H         17.05416        7.80075       -5.09720
H         16.63797        8.90184       -3.78577
H         16.36269       10.77418       -5.47509
H         16.85522        9.66865       -6.75717
H         19.07637        9.33126       -5.60773
H         18.57828       10.43399       -4.32479
H         18.35118       12.29682       -6.02297
H         18.86124       11.18837       -7.29492
H         21.07298       10.84561       -6.08413
H         20.54994       11.95007       -4.82328
H         20.76336       14.45386       -5.29331
H         21.69488       16.05598       -7.06357
H         21.51737       12.00405       -9.81992
H         20.74116       11.03835       -8.56195
H         23.00090       10.69332       -7.45468
H         23.76339       11.63769       -8.74867
H         23.90783        8.35886       -6.70244
H         24.96778        7.82391       -8.02748
H         23.79295        6.70151       -7.31035
H         20.86887        8.76493       -7.19725
H         20.71950        7.12706       -7.83366
H         20.16737        8.49356       -8.81763
H         23.77640        7.35581      -10.90893
H         22.03788        7.60227      -11.19672
H         22.59500        6.19898      -10.25814
H         21.65148       14.30080      -10.42277
H         23.26942       13.92007       -9.85618
H         24.45782       17.91621      -10.43095
H         22.95879       18.13654      -11.36545
H         24.04697       17.02413      -13.35483
H         25.53914       16.82103      -12.42669
H         25.72334       19.33156      -12.19029
H         24.24261       19.52758      -13.12395
H         26.84718       18.24668      -14.18251
H         26.24972       19.86829      -14.57950
H         25.35509       18.43766      -15.12462
