114

C          0.46915       -3.81238       -1.51251
C          1.87517       -3.68909       -0.92022
C          2.94033       -4.45038       -1.71742
C          4.35149       -4.32640       -1.13401
C          5.41700       -5.08792       -1.92895
C          6.83067       -4.93968       -1.35757
C          7.89154       -5.74403       -2.11515
C          9.30374       -5.59248       -1.54079
C         10.34755       -6.47537       -2.23109
C         11.74430       -6.36251       -1.61250
C         12.77776       -7.25295       -2.31420
C         14.11661       -7.25073       -1.60025
O         15.09581       -7.92427       -2.45123
C         16.13751       -8.57597       -1.83061
N         16.22597       -9.95386       -2.48760
C         17.56175      -10.63922       -2.31414
C         17.67466      -11.83241       -3.27036
C         17.86236      -11.34883       -4.72312
O         17.78798      -12.46106       -5.57435
C         17.88000      -12.13305       -6.97102
C         17.66969      -13.40382       -7.77680
C         17.67917      -13.16492       -9.29172
C         17.44409      -14.45134      -10.09192
C         17.42184      -14.24460      -11.60983
C         17.19926      -15.54382      -12.39156
C         17.16546      -15.35765      -13.91174
C         16.97623      -16.66938      -14.68294
C         16.94487      -16.48342      -16.20189
C         16.47484      -12.78549       -3.09754
C         15.13227      -12.04887       -3.18957
C         15.02667      -10.87755       -2.20255
C         14.92358      -11.27248       -0.72675
C         13.50541      -11.77060       -0.40573
C         13.27203      -11.89737        1.10454
S         11.51601      -11.90457        1.54453
C         11.11347      -10.15875        1.44428
S         12.27535       -8.97644        1.19188
N          9.79939       -9.89841        1.62104
C          9.25405       -8.53410        1.59704
C          8.12870       -8.45175        0.56672
O          7.11232       -9.42107        0.81218
C          7.65223      -10.73592        0.78630
C          8.75765      -10.91152        1.83245
H         -0.26984       -3.25959       -0.91642
H          0.14339       -4.86264       -1.55352
H          0.43142       -3.41615       -2.53820
H          1.87051       -4.05584        0.12040
H          2.15846       -2.62441       -0.86235
H          2.94332       -4.08597       -2.76000
H          2.65984       -5.51719       -1.77310
H          4.34775       -4.68947       -0.09095
H          4.63004       -3.25929       -1.07945
H          5.41040       -4.73937       -2.97660
H          5.14882       -6.15854       -1.96657
H          6.82739       -5.24864       -0.29630
H          7.11383       -3.87256       -1.35414
H          7.89506       -5.43856       -3.17589
H          7.60616       -6.81105       -2.11538
H          9.29015       -5.82458       -0.46090
H          9.61445       -4.53566       -1.60893
H         10.39355       -6.22036       -3.30419
H         10.02034       -7.52973       -2.18640
H         11.68980       -6.63971       -0.54680
H         12.08122       -5.31259       -1.64714
H         12.92610       -6.91385       -3.35204
H         12.40035       -8.28832       -2.36191
H         14.05090       -7.78449       -0.63763
H         14.47534       -6.22519       -1.41596
H         16.00001       -8.71092       -0.74718
H         17.11310       -8.09781       -2.02791
H         16.14045       -9.73332       -3.49323
H         17.63883      -10.94606       -1.26382
H         18.33589       -9.88314       -2.50861
H         18.59064      -12.37508       -2.99043
H         18.83701      -10.82708       -4.81470
H         17.08507      -10.60195       -5.01880
H         18.86845      -11.68236       -7.18225
H         17.10813      -11.37670       -7.21767
H         16.70813      -13.85171       -7.47725
H         18.45227      -14.12981       -7.50487
H         18.64153      -12.71641       -9.59284
H         16.90257      -12.42546       -9.55468
H         16.48931      -14.90542       -9.77359
H         18.22670      -15.18636       -9.83571
H         18.37180      -13.78329      -11.93127
H         16.63078      -13.51944      -11.86946
H         16.25439      -16.01029      -12.06120
H         17.99583      -16.26300      -12.13163
H         18.10107      -14.87286      -14.24245
H         16.35355      -14.65774      -14.17819
H         16.04182      -17.15326      -14.35086
H         17.78800      -17.36657      -14.41358
H         16.12090      -15.82117      -16.50738
H         16.81014      -17.44156      -16.72243
H         17.88050      -16.03550      -16.56897
H         16.56268      -13.29818       -2.12784
H         16.52683      -13.56122       -3.87022
H         14.30050      -12.73896       -2.99592
H         14.97163      -11.67467       -4.21405
H         14.16066      -10.24961       -2.45681
H         15.10741      -10.39728       -0.08511
H         15.67219      -12.03157       -0.45536
H         13.29871      -12.73294       -0.89652
H         12.78790      -11.03871       -0.80554
H         13.73147      -11.05976        1.64920
H         13.65825      -12.84360        1.51056
H         10.06923       -7.84264        1.35597
H          8.86724       -8.29620        2.60154
H          8.54534       -8.58758       -0.45047
H          7.64105       -7.46985        0.61623
H          8.05716      -10.96625       -0.21931
H          6.82165      -11.42192        0.99807
H          9.18148      -11.91981        1.76012
H          8.34394      -10.78319        2.84618
