56

C          2.10442       -0.57879       -9.02345
C          2.64369        0.77997       -8.57122
C          3.36026        0.70591       -7.21565
C          3.85277        2.07286       -6.77210
O          4.46978        2.00824       -5.43409
C          5.78648        1.77642       -5.39305
O          6.53242        1.65889       -6.34330
C          6.25846        1.65625       -3.92662
C          7.70192        2.04687       -3.79529
C          8.07031        3.31554       -3.32882
C          9.44071        3.61690       -3.30436
N         10.31261        2.68703       -3.69822
N         10.03717        1.46716       -4.12311
C          8.74014        1.13031       -4.18234
C          8.46277       -0.23604       -4.64423
C          9.39289       -1.20181       -4.70468
C          7.10299        4.37462       -2.85618
C          6.74256        4.27924       -1.35094
P          8.17245        4.62105       -0.24884
O          9.32267        5.24339       -0.95527
O          7.67886        5.55679        0.94452
C          6.62512        5.18460        1.88960
C          6.87533        5.91347        3.19324
O          8.44133        3.15693        0.36231
C          9.60437        2.95645        1.23919
C          9.83442        1.46873        1.38934
H          1.59973       -0.50078       -9.99504
H          1.37781       -0.97854       -8.30116
H          2.91413       -1.31587       -9.12605
H          1.81416        1.50336       -8.50700
H          3.33898        1.17457       -9.33000
H          4.21546        0.01495       -7.28764
H          2.67535        0.30253       -6.45268
H          3.02558        2.78175       -6.64151
H          4.59163        2.48755       -7.47037
H          6.11062        0.60710       -3.62824
H          5.60673        2.25916       -3.28668
H          9.83469        4.56371       -2.93296
H         11.31309        2.89896       -3.69082
H          7.44281       -0.44996       -4.95683
H         10.42698       -1.02605       -4.40794
H          9.13337       -2.19888       -5.05776
H          6.17854        4.32488       -3.44659
H          7.54999        5.36039       -3.04363
H          6.31830        3.29924       -1.09156
H          5.97494        5.03702       -1.13670
H          6.62920        4.09232        2.02790
H          5.66130        5.48038        1.44649
H          7.82726        5.60441        3.64401
H          6.06764        5.68523        3.90185
H          6.90034        6.99908        3.03514
H          9.38792        3.43078        2.20775
H         10.47027        3.46386        0.79003
H          8.95573        0.97206        1.82037
H         10.68712        1.29728        2.06020
H         10.06204        1.00225        0.42175
