87

C         19.43981       -4.49592        2.79709
C         18.09129       -3.78773        2.64922
C         18.15281       -2.55361        1.74338
C         16.81538       -1.81759        1.61436
C         16.87697       -0.60005        0.68678
C         15.55830        0.17519        0.59254
C         15.64505        1.39058       -0.33587
C         14.36314        2.23022       -0.38837
C         14.50402        3.44329       -1.31769
C         13.29781        4.36457       -1.28147
O         13.55958        5.48770       -2.15997
C         12.60904        6.52350       -2.09203
C         13.07239        7.62479       -3.01383
N         14.15419        7.34547       -3.77060
C         14.68259        8.21510       -4.66176
C         14.14149        9.48216       -4.82645
C         13.02225        9.84052       -4.01782
C         12.49551        8.88117       -3.13808
C         12.39976       11.20877       -4.13722
C         11.52513       11.70659       -2.97492
C         12.22724       11.84457       -1.61043
C         13.53447       12.65194       -1.59762
C         13.40226       14.11181       -2.05124
C         14.67463       14.94782       -1.84292
C         15.88440       14.50136       -2.67185
C         17.12268       15.38135       -2.47487
C         18.34011       14.91350       -3.27839
C         19.57822       15.78766       -3.06905
C         14.76070       10.39921       -5.85546
C         15.86064       11.34337       -5.31944
C         17.07638       10.62758       -4.69102
C         17.67984        9.62357       -5.55939
C         18.14986        8.78432       -6.29593
H         19.36044       -5.38468        3.43793
H         20.19252       -3.82939        3.24408
H         19.82714       -4.82348        1.82061
H         17.71981       -3.48947        3.64423
H         17.34540       -4.49385        2.24667
H         18.50344       -2.85642        0.74070
H         18.91575       -1.85576        2.13216
H         16.48024       -1.49655        2.61630
H         16.04551       -2.51865        1.24692
H         17.18188       -0.92654       -0.32290
H         17.67155        0.08234        1.03700
H         15.25877        0.50677        1.60219
H         14.75752       -0.49948        0.24303
H         15.90282        1.05369       -1.35509
H         16.48015        2.03495       -0.00906
H         14.11136        2.57164        0.63061
H         13.51984        1.60120       -0.72015
H         14.66816        3.10239       -2.35279
H         15.39393        4.02505       -1.02667
H         13.12543        4.74788       -0.25955
H         12.37917        3.85203       -1.61874
H         12.50930        6.92469       -1.06400
H         11.60144        6.18320       -2.40783
H         14.56009        6.41357       -3.61864
H         15.55300        7.87235       -5.22274
H         11.62527        9.11659       -2.52658
H         11.79139       11.20365       -5.06093
H         13.19865       11.93732       -4.33568
H         10.63668       11.06388       -2.86497
H         11.12863       12.68553       -3.28134
H         12.43633       10.84680       -1.19029
H         11.50942       12.31072       -0.91674
H         14.29663       12.13435       -2.20493
H         13.92772       12.63866       -0.56768
H         12.57432       14.58035       -1.49341
H         13.11224       14.15915       -3.11606
H         14.94364       14.93211       -0.77252
H         14.44913       15.99952       -2.08231
H         15.60954       14.49929       -3.74295
H         16.15123       13.46043       -2.41715
H         17.38318       15.40719       -1.40265
H         16.88011       16.42142       -2.75244
H         18.08067       14.89297       -4.35103
H         18.57641       13.87110       -2.99974
H         19.38506       16.82814       -3.36772
H         20.43204       15.42551       -3.65750
H         19.88236       15.79825       -2.01220
H         13.97540       11.00409       -6.32901
H         15.20109        9.77851       -6.64967
H         15.45193       12.03693       -4.57045
H         16.20299       11.95656       -6.16510
H         16.78909       10.15517       -3.73601
H         17.83231       11.38547       -4.43007
H         18.61173        8.06822       -6.94409
