55

C          6.39977        0.35819       -4.52191
C          5.85028       -0.23479       -3.22265
C          6.56694        0.30188       -1.97952
C          6.03247       -0.24282       -0.65056
N          6.22327       -1.69366       -0.48909
C          7.34574       -2.21796        0.03962
O          8.31532       -1.56540        0.43392
C          7.37072       -3.75194        0.18077
S          9.11768       -4.19991        0.44230
C          9.36221       -3.87030        2.23049
C         10.78447       -4.21104        2.70726
C         11.89720       -3.54588        1.86610
C         11.86516       -2.01556        1.79581
C         10.86751       -3.84768        4.20019
C          9.02927       -6.03082        0.42849
C          8.72927       -6.56468       -0.96827
O          9.59493       -5.91216       -1.86793
C          9.46508       -6.36961       -3.22353
C         10.45466       -5.58239       -4.07243
O         10.24655       -5.97858       -5.41143
C         11.13916       -5.33613       -6.31630
H          5.87655       -0.04490       -5.39875
H          7.47054        0.13609       -4.63870
H          6.28498        1.45130       -4.53791
H          5.94226       -1.33416       -3.26065
H          4.77146       -0.01768       -3.14322
H          6.46827        1.39886       -1.94266
H          7.64721        0.09398       -2.04124
H          4.95459       -0.04922       -0.55336
H          6.54327        0.24036        0.19236
H          5.49875       -2.31697       -0.82951
H          7.04052       -4.27771       -0.72600
H          6.77106       -4.09455        1.03669
H          8.59359       -4.43463        2.77883
H          9.15451       -2.79422        2.30276
H         10.92258       -5.30323        2.63284
H         11.87457       -3.95559        0.84121
H         12.85828       -3.87658        2.28865
H         10.95154       -1.63413        1.31757
H         12.71450       -1.65060        1.20427
H         11.94464       -1.55720        2.79072
H         10.69781       -2.77525        4.36741
H         11.86386       -4.09703        4.58820
H         10.12871       -4.40377        4.79388
H          8.29223       -6.36908        1.16893
H         10.03479       -6.33721        0.74793
H          7.66651       -6.40402       -1.24118
H          8.89279       -7.66005       -0.95556
H          8.43615       -6.20001       -3.58929
H          9.68017       -7.45074       -3.28276
H         11.49100       -5.79648       -3.74437
H         10.27947       -4.49520       -3.94152
H         10.90168       -5.71169       -7.31788
H         12.19145       -5.57354       -6.07879
H         11.00815       -4.23906       -6.29836
