173

C          0.38082        3.59841       -1.53619
C          1.78536        3.44142       -2.12452
C          2.05608        2.04083       -2.68594
C          3.47275        1.86008       -3.24048
C          3.75184        0.44869       -3.76796
C          5.18437        0.25469       -4.27518
C          5.49456       -1.17793       -4.72156
C          6.94886       -1.37875       -5.15922
C          7.29192       -2.82655       -5.52029
C          8.77023       -3.04046       -5.85980
C          9.11422       -4.49753       -6.18072
C         10.61690       -4.77920       -6.26257
C         10.92606       -6.26386       -6.47449
C         12.41240       -6.61550       -6.37275
C         12.67565       -8.12008       -6.50554
C         14.12856       -8.50740       -6.21704
C         14.45430       -9.98145       -6.46426
O         15.80218      -10.30782       -6.14578
C         15.97999      -10.50533       -4.75600
N         15.21354      -11.67083       -4.34414
C         13.97142      -11.80861       -4.83955
N         13.16706      -12.81923       -4.43486
C         13.56960      -13.64948       -3.28306
C         13.57437      -12.90042       -1.93741
C         14.62008      -13.45272       -0.96096
S         16.32122      -13.31466       -1.58537
C         16.75762      -15.05296       -1.97451
S         15.70683      -16.31392       -1.71836
N         18.01062      -15.16988       -2.45886
C         18.87486      -14.02405       -2.77172
C         18.75193      -13.57209       -4.23391
C         19.50341      -12.26873       -4.51489
C         19.35671      -11.79291       -5.96458
C         19.93689      -10.39808       -6.21611
C         19.68343       -9.88045       -7.63492
C         20.30548       -8.50706       -7.90983
C         20.02014       -7.98591       -9.31992
C         18.58517      -16.50033       -2.73706
C         19.31930      -17.08296       -1.52457
C         19.93962      -18.45057       -1.82735
C         20.71175      -19.03280       -0.63828
C         21.34302      -20.39869       -0.92704
C         22.13772      -20.96531        0.25419
C         22.77432      -22.33062       -0.02918
C         23.57036      -22.88512        1.15543
C         12.01449      -13.24480       -5.24560
C         10.70190      -12.52844       -4.94970
O         10.70453      -11.27709       -5.64002
C          9.55897      -10.45411       -5.34842
C          9.16911       -9.69336       -6.60945
O          8.16521       -8.77898       -6.19932
C          7.63750       -7.92286       -7.14479
C          6.60890       -7.08482       -6.69664
C          6.03483       -6.16902       -7.56694
C          6.44825       -6.05405       -8.90944
C          7.48061       -6.90009       -9.32648
C          8.07453       -7.83368       -8.46678
C          5.75893       -5.05926       -9.85083
C          4.25154       -5.42507      -10.07234
C          3.73906       -6.81840      -10.55237
C          4.39355       -7.30309      -11.86031
C          3.90130       -7.91724       -9.48145
C          2.22749       -6.63246      -10.81217
C          5.77409       -3.65545       -9.19283
C          6.50741       -4.90527      -11.19035
N         13.54734      -10.90360       -5.73821
H          0.21577        4.61274       -1.14688
H          0.21498        2.89345       -0.70745
H         -0.39373        3.40335       -2.29297
H          2.53706        3.67194       -1.35058
H          1.93750        4.18817       -2.92231
H          1.31965        1.81710       -3.47833
H          1.87978        1.29257       -1.89245
H          4.20483        2.10098       -2.44931
H          3.64864        2.59432       -4.04623
H          3.03872        0.21007       -4.57667
H          3.55109       -0.28300       -2.96495
H          5.89109        0.54227       -3.47661
H          5.37713        0.95028       -5.11070
H          4.81712       -1.46442       -5.54533
H          5.26880       -1.87032       -3.89086
H          7.61748       -1.04239       -4.34673
H          7.16880       -0.72212       -6.01938
H          6.66599       -3.15704       -6.36544
H          7.02305       -3.48318       -4.67328
H          9.38357       -2.70124       -5.00608
H          9.05512       -2.39450       -6.70883
H          8.62773       -4.79781       -7.12277
H          8.67664       -5.14784       -5.40294
H         11.09948       -4.43766       -5.32950
H         11.07038       -4.18375       -7.07369
H         10.53172       -6.58154       -7.45439
H         10.36758       -6.84911       -5.72209
H         12.80065       -6.26744       -5.39948
H         12.98608       -6.07026       -7.14104
H         12.39025       -8.45639       -7.51833
H         12.01307       -8.64835       -5.79999
H         14.37264       -8.24643       -5.17457
H         14.81374       -7.93278       -6.85939
H         14.36137      -10.20960       -7.53864
H         15.66855       -9.61459       -4.18247
H         17.04259      -10.69935       -4.58165
H         15.62839      -12.36130       -3.70648
H         14.56148      -14.09202       -3.47714
H         12.87824      -14.49737       -3.24601
H         12.58229      -12.96886       -1.46585
H         13.75631      -11.82905       -2.10686
H         14.47489      -14.53022       -0.76182
H         14.59857      -12.90710       -0.00947
H         19.90935      -14.32051       -2.54459
H         18.64049      -13.19524       -2.08807
H         17.68391      -13.44563       -4.47833
H         19.11846      -14.36965       -4.89973
H         20.57195      -12.39039       -4.27034
H         19.13492      -11.48411       -3.82798
H         18.28888      -11.79714       -6.24858
H         19.83924      -12.52094       -6.63828
H         21.02175      -10.40963       -6.01244
H         19.50551       -9.68557       -5.48918
H         18.59373       -9.83284       -7.81245
H         20.07673      -10.60933       -8.36520
H         21.39523       -8.56590       -7.75090
H         19.93184       -7.78256       -7.16576
H         20.41126       -8.67175      -10.08587
H         20.48340       -7.00431       -9.48780
H         18.93934       -7.87663       -9.49594
H         19.27373      -16.38323       -3.58742
H         17.76610      -17.16149       -3.04798
H         18.60796      -17.16863       -0.68844
H         20.10723      -16.38261       -1.19957
H         20.61763      -18.36552       -2.69514
H         19.14428      -19.15317       -2.12988
H         20.03434      -19.11929        0.22883
H         21.50131      -18.32285       -0.33541
H         22.00590      -20.31625       -1.80667
H         20.55131      -21.11361       -1.21218
H         21.47545      -21.04770        1.13431
H         22.92749      -20.24785        0.53965
H         23.43346      -22.24701       -0.90996
H         21.98441      -23.04747       -0.31077
H         24.38526      -22.20392        1.44299
H         24.02099      -23.85843        0.91737
H         22.92880      -23.02333        2.03850
H         11.88107      -14.31874       -5.06405
H         12.25724      -13.12888       -6.31296
H         10.58341      -12.37922       -3.86090
H          9.85998      -13.14821       -5.30753
H          9.79898       -9.74712       -4.53622
H          8.71733      -11.08294       -5.01767
H          8.78873      -10.38909       -7.37876
H         10.04634       -9.16889       -7.02439
H          6.27903       -7.15988       -5.66027
H          5.23142       -5.53651       -7.18852
H          7.84097       -6.85578      -10.35326
H          8.86987       -8.47382       -8.84721
H          3.86838       -4.67558      -10.78660
H          3.72453       -5.21647       -9.12574
H          5.44295       -7.59180      -11.71187
H          4.35349       -6.53631      -12.64762
H          3.86450       -8.19117      -12.23669
H          4.95143       -8.18306       -9.31015
H          3.37488       -8.82892       -9.80151
H          3.47226       -7.60616       -8.51765
H          2.04602       -5.89582      -11.60895
H          1.70615       -6.28397       -9.90812
H          1.76549       -7.58179      -11.11995
H          5.20861       -3.62958       -8.25191
H          5.32336       -2.91350       -9.86735
H          6.80486       -3.33906       -8.97825
H          6.59919       -5.83746      -11.75723
H          7.51928       -4.50600      -11.02724
H          5.97008       -4.19078      -11.82917
H         12.53354      -10.85131       -5.91022
