79

C          5.70756       -4.29624        6.00688
C          6.27859       -3.52169        4.81747
C          6.94603       -4.42310        3.77384
C          7.51930       -3.65731        2.57823
C          8.19375       -4.55692        1.53798
C          8.77500       -3.78589        0.34895
C          9.46046       -4.67992       -0.68929
C         10.05988       -3.89572       -1.86117
C         10.77046       -4.78501       -2.88815
C         11.40584       -3.97684       -4.00685
O         12.08612       -4.86104       -4.91634
C         12.79845       -4.14627       -5.91146
C         13.63064       -5.08669       -6.79646
C         12.76522       -6.10621       -7.55823
N         12.28856       -7.18137       -6.67672
C         13.03857       -7.63296       -5.65987
N         12.64849       -8.62406       -4.84479
C         11.46019       -9.52721       -4.90518
C         11.29550      -10.26166       -6.26179
C         12.28489      -11.37144       -6.68248
C         11.78244      -12.00274       -7.98897
C         13.73696      -10.90174       -6.84624
C         11.72709      -10.55559       -3.78472
O         12.02441       -9.83005       -2.58650
C         10.17840       -8.73711       -4.56761
N         14.26233       -7.09958       -5.47187
C         14.77427       -5.90240       -6.14553
C         15.71422       -5.17645       -5.15626
C         16.61542       -4.06952       -5.76000
F         17.28965       -4.58020       -6.83121
F         15.84646       -3.02635       -6.19403
F         15.05319       -4.65337       -4.08524
F         16.58406       -6.13298       -4.65204
H          5.24111       -3.62391        6.73971
H          6.49445       -4.86185        6.52748
H          4.94254       -5.01725        5.68250
H          7.01234       -2.78071        5.17688
H          5.47495       -2.94148        4.33376
H          6.21289       -5.16703        3.41484
H          7.75242       -5.00247        4.25746
H          8.24812       -2.91079        2.93981
H          6.71196       -3.08101        2.09333
H          7.46443       -5.30049        1.17096
H          8.99831       -5.13591        2.02497
H          9.50018       -3.04030        0.71948
H          7.97117       -3.20872       -0.14040
H          8.73412       -5.41766       -1.07381
H         10.25775       -5.26443       -0.19738
H         10.77333       -3.15148       -1.46779
H          9.26238       -3.31938       -2.36026
H         10.05317       -5.50246       -3.32018
H         11.55513       -5.37648       -2.38835
H         12.13504       -3.25409       -3.59366
H         10.64115       -3.39786       -4.55992
H         13.45099       -3.38501       -5.45095
H         12.09688       -3.60322       -6.57826
H         14.10289       -4.44011       -7.55098
H         13.33326       -6.54678       -8.39254
H         11.88216       -5.61379       -7.98266
H         11.28798       -7.31574       -6.59196
H         13.08849       -8.64561       -3.92218
H         11.24870       -9.51539       -7.07142
H         10.28958      -10.70934       -6.22848
H         12.26735      -12.16398       -5.91554
H         11.78235      -11.26746       -8.80821
H         10.75963      -12.39109       -7.88556
H         12.42952      -12.83652       -8.29187
H         13.80586      -10.08390       -7.58113
H         14.36331      -11.72520       -7.21541
H         14.17879      -10.55153       -5.90382
H         12.57468      -11.20291       -4.05984
H         10.82704      -11.18184       -3.66809
H         12.26783      -10.45785       -1.88897
H          9.90588       -8.02331       -5.35888
H         10.29633       -8.18245       -3.62934
H          9.33233       -9.42871       -4.46124
H         14.91781       -7.60840       -4.88646
H         15.44465       -6.22419       -6.96190
H         17.33439       -3.70600       -5.00885
