61

C         -0.33016        1.36860       -0.93023
C          1.09999        0.82932       -0.81403
C          1.93847        1.25078       -2.00411
O          3.29865        0.71973       -1.81826
C          4.14170        0.89976       -2.83411
O          3.89606        1.42027       -3.90270
C          5.52838        0.36555       -2.44315
N          6.46864        0.46541       -3.55490
C          6.94690       -0.62993       -4.29141
C          6.67674       -2.06099       -3.98550
C          7.55199       -2.66679       -2.86814
C          7.81028       -4.15849       -3.17576
O          7.87795       -4.55017       -4.33751
N          7.98705       -4.94091       -2.06982
C          8.31178       -6.31874       -1.98184
C          8.40269       -6.86433       -0.69024
C          8.72071       -8.20920       -0.51767
C          8.95073       -9.02393       -1.63027
C          8.85710       -8.47754       -2.91193
C          8.53845       -7.13129       -3.10367
C          7.71392       -0.10455       -5.29389
N          7.68046        1.26701       -5.15047
C          6.91364        1.62139       -4.10450
C          6.63145        3.03648       -3.71279
C          6.60441        3.31300       -2.21967
C          5.41978        3.80431       -1.65393
C          5.33364        4.06906       -0.28707
C          6.44524        3.84343        0.52609
C          7.63239        3.36831       -0.03486
C          7.74051        3.09668       -1.40676
C          9.04992        2.60108       -1.97096
H         -0.93089        1.05565       -0.06735
H         -0.83099        0.99667       -1.83539
H         -0.34730        2.46746       -0.96483
H          1.08739       -0.26957       -0.75280
H          1.57178        1.19575        0.11051
H          2.02016        2.34493       -2.08938
H          1.54695        0.86116       -2.95432
H          5.45102       -0.68499       -2.14519
H          5.90142        0.93417       -1.58157
H          6.90099       -2.64046       -4.89503
H          5.60787       -2.22383       -3.77910
H          7.11376       -2.52387       -1.86886
H          8.53669       -2.17202       -2.85985
H          7.88137       -4.47798       -1.17174
H          8.22533       -6.22959        0.18191
H          8.78901       -8.62031        0.48990
H          9.20137      -10.07619       -1.49710
H          9.03526       -9.10531       -3.78563
H          8.46398       -6.71115       -4.10251
H          8.27075       -0.59715       -6.08139
H          8.15223        1.93526       -5.75232
H          5.65886        3.31183       -4.14955
H          7.38946        3.66436       -4.21024
H          4.55563        3.98138       -2.29787
H          4.40693        4.45608        0.13708
H          6.39417        4.04790        1.59580
H          8.50486        3.21334        0.60272
H          9.84000        2.64258       -1.21222
H          9.38628        3.20844       -2.82558
H          8.99113        1.55674       -2.31825
