54

C          0.92102       -0.69216       -2.09397
C          2.45111       -0.67750       -2.12283
C          3.03533        0.64172       -1.59567
C          4.56539        0.61929       -1.60722
S          5.16471        2.24891       -1.01203
C          6.85980        2.02477       -0.96302
N          7.74269        2.94764       -0.56432
N          8.96278        2.37527       -0.64367
C          8.80203        1.14246       -1.09183
O          7.46178        0.85855       -1.31925
C          9.74292        0.12263       -1.40360
N         11.04668        0.19458       -1.20746
C         11.75245       -1.03117       -1.66966
C         10.70159       -1.77122       -2.51824
C          9.36070       -1.19333       -2.00751
C         10.76372       -3.29970       -2.44057
C         12.05676       -3.90253       -3.00947
C         12.02130       -5.42383       -2.95937
Br        13.67141       -6.20168       -3.67981
C         11.75439        1.23817       -0.52141
C         11.64221        1.35788        0.86363
C         12.33778        2.36572        1.52657
C         13.13558        3.24489        0.78982
C         13.25431        3.12914       -0.59611
C         12.56115        2.11791       -1.27462
O         12.57209        1.91116       -2.61746
C         13.34033        2.81051       -3.43529
H          0.52983       -1.64031       -2.48495
H          0.50034        0.11888       -2.70501
H          0.53905       -0.57198       -1.07022
H          2.80595       -0.84532       -3.15299
H          2.84168       -1.51492       -1.52089
H          2.67616        0.82352       -0.56992
H          2.66930        1.47905       -2.21196
H          4.95939        0.45958       -2.62036
H          4.96138       -0.15728       -0.93889
H         12.06237       -1.59541       -0.77386
H         12.65240       -0.73321       -2.22005
H         10.83028       -1.45738       -3.56651
H          8.91518       -1.82669       -1.21878
H          8.59949       -1.08539       -2.78991
H          9.89939       -3.70786       -2.98968
H         10.63475       -3.61079       -1.38882
H         12.93263       -3.54423       -2.44556
H         12.19668       -3.57384       -4.05127
H         11.20911       -5.84048       -3.56641
H         11.93905       -5.80544       -1.93495
H         11.00777        0.65983        1.41100
H         12.25871        2.46251        2.60819
H         13.68029        4.03937        1.30018
H         13.88041        3.83011       -1.14462
H         13.19581        2.46465       -4.46320
H         14.40925        2.76578       -3.17882
H         12.97142        3.84198       -3.33722
