80

C          0.59336        0.28826       -0.11177
C          2.12059        0.26080       -0.00713
C          2.73284       -1.09401       -0.38068
C          4.26151       -1.12914       -0.28302
C          4.87167       -2.48452       -0.65477
C          6.40084       -2.52035       -0.56156
C          7.00596       -3.87683       -0.93697
C          8.53561       -3.92002       -0.85463
C          9.12737       -5.28081       -1.23624
C         10.65743       -5.33725       -1.16985
C         11.23119       -6.70076       -1.56877
C         12.76196       -6.76896       -1.53932
C         13.31240       -8.13630       -1.95763
C         14.84272       -8.21382       -1.98579
C         15.36601       -9.58378       -2.43012
C         16.89214       -9.66590       -2.54249
C         17.38108      -11.04057       -3.01421
C         18.89769      -11.11525       -3.23192
C         19.42085      -12.51318       -3.60761
C         18.87191      -13.03331       -4.94617
C         19.42967      -14.38122       -5.40073
C         18.86630      -14.87838       -6.72981
C         19.38928      -16.25767       -7.13563
Br        21.26653      -16.12396       -7.74689
C         19.22090      -17.29219       -6.02048
C         19.67234      -16.83726       -4.61698
N         19.10293      -15.43494       -4.33958
C         21.10048      -16.81116       -4.35014
C         22.26857      -16.81127       -4.04188
H          0.18671        1.27104        0.16427
H          0.13411       -0.45936        0.55244
H          0.25901        0.06656       -1.13654
H          2.42446        0.52426        1.02040
H          2.54867        1.04321       -0.65674
H          2.42642       -1.36039       -1.40813
H          2.30697       -1.87743        0.27140
H          4.56752       -0.86104        0.74387
H          4.68647       -0.34670       -0.93653
H          4.56336       -2.75353       -1.68080
H          4.44825       -3.26669        0.00011
H          6.71046       -2.25336        0.46443
H          6.82431       -1.73805       -1.21614
H          6.69007       -4.14462       -1.96095
H          6.58430       -4.65784       -0.27963
H          8.85479       -3.65581        0.16902
H          8.95891       -3.14031       -1.51228
H          8.79955       -5.54495       -2.25745
H          8.70543       -6.05896       -0.57568
H         10.99041       -5.08336       -0.14809
H         11.08027       -4.55691       -1.82701
H         10.87833       -6.95854       -2.58323
H         10.81889       -7.47847       -0.90169
H         13.12299       -6.52110       -0.52578
H         13.17446       -5.99053       -2.20517
H         12.92088       -8.39156       -2.95854
H         12.91972       -8.91118       -1.27557
H         15.24455       -7.97195       -0.98651
H         15.23422       -7.43655       -2.66524
H         14.92015       -9.83835       -3.40849
H         15.00824      -10.35636       -1.72646
H         17.35278       -9.42535       -1.56901
H         17.24792       -8.89293       -3.24554
H         16.84961      -11.29224       -3.94852
H         17.07966      -11.80598       -2.27540
H         19.41398      -10.79265       -2.31431
H         19.19783      -10.39823       -4.01494
H         19.15296      -13.19872       -2.77888
H         20.52223      -12.49288       -3.65137
H         19.11640      -12.31113       -5.74125
H         17.76976      -13.08569       -4.92210
H         20.53045      -14.36054       -5.43614
H         19.09757      -14.13903       -7.50683
H         17.76264      -14.92630       -6.66590
H         18.86247      -16.61063       -8.02828
H         19.74412      -18.22566       -6.26036
H         18.14668      -17.54008       -5.96005
H         19.19241      -17.49021       -3.86945
H         19.46546      -15.10444       -3.43331
H         18.07780      -15.49672       -4.24658
H         23.31274      -16.81703       -3.79815
