103

C         15.68500       -1.31903       11.59639
C         15.52277       -1.15892       10.08255
C         15.83287        0.25676        9.58352
C         15.66283        0.43016        8.07096
C         15.99281        1.84061        7.57174
C         15.79599        2.02344        6.06339
C         16.16515        3.42258        5.55952
C         15.91071        3.62533        4.06214
C         16.35981        4.99432        3.54025
C         16.03610        5.22469        2.06051
C         16.54930        6.56304        1.51762
C         16.16056        6.82043        0.05811
C         16.74565        8.11301       -0.52126
C         16.28097        8.40128       -1.95238
C         16.92255        9.64651       -2.57504
C         16.42019        9.93176       -3.99581
C         17.04370       11.16832       -4.65721
C         18.54000       10.96290       -5.02082
C         19.16184       12.24090       -5.48778
N         19.16092       12.40887       -6.81430
N         19.64129       13.54727       -7.31060
C         20.15175       14.53817       -6.56279
C         20.17617       14.39681       -5.18150
C         19.67832       13.23612       -4.59792
C         19.71039       13.00609       -3.11010
C         19.52339       14.24318       -2.21423
P         17.85961       14.98234       -2.38922
O         16.78232       13.98560       -2.57713
O         17.61878       15.88694       -1.09586
C         18.46242       17.02912       -0.74828
C         17.67950       17.92760        0.18476
O         18.09689       15.98963       -3.63490
C         16.94227       16.47802       -4.39467
C         16.36319       17.74861       -3.79944
C         19.67370       13.61040       -8.77757
C         21.13046       13.62000       -9.28716
O         22.07503       13.94207       -8.59645
O         21.14166       13.26930      -10.56898
C         22.44987       13.27823      -11.25511
C         23.16730       11.94688      -11.09435
C         24.45715       11.91369      -11.92260
H         15.45713       -2.34371       11.92137
H         15.01385       -0.64033       12.14394
H         16.71351       -1.09111       11.91445
H         14.49290       -1.42796        9.79196
H         16.17883       -1.87794        9.56296
H         16.86647        0.52338        9.86803
H         15.18215        0.97826       10.10897
H         14.62499        0.17734        7.79013
H         16.30232       -0.30096        7.54536
H         17.03735        2.08410        7.83570
H         15.36834        2.57441        8.11137
H         14.74405        1.80766        5.80539
H         16.39772        1.27201        5.52217
H         17.22980        3.61787        5.77928
H         15.59739        4.17879        6.12993
H         14.83468        3.48881        3.85462
H         16.42864        2.83313        3.49284
H         17.44743        5.10362        3.69886
H         15.88682        5.78951        4.14339
H         14.94299        5.16622        1.91491
H         16.46308        4.40224        1.45967
H         17.64905        6.59635        1.61612
H         16.16558        7.38558        2.14673
H         15.05983        6.84889       -0.02423
H         16.48556        5.96683       -0.56283
H         17.84867        8.05378       -0.49779
H         16.47447        8.96358        0.12859
H         15.18329        8.51558       -1.96250
H         16.49817        7.52650       -2.59026
H         18.01935        9.50864       -2.57423
H         16.72201       10.52697       -1.93979
H         15.33018       10.08714       -3.96071
H         16.57919        9.04564       -4.63431
H         16.92645       12.04104       -3.99401
H         16.50646       11.41033       -5.58746
H         18.62560       10.22187       -5.82677
H         19.09436       10.57390       -4.15545
H         20.53061       15.41125       -7.08802
H         20.57963       15.21177       -4.58512
H         20.68641       12.54043       -2.87932
H         18.95145       12.26293       -2.83935
H         20.29885       15.00887       -2.36135
H         19.59978       13.92081       -1.16582
H         18.74973       17.55595       -1.67080
H         19.37339       16.64537       -0.26146
H         16.78331       18.32448       -0.30901
H         18.30789       18.77435        0.49389
H         17.36991       17.38172        1.08481
H         16.19482       15.67261       -4.44305
H         17.33704       16.65469       -5.40517
H         15.92868       17.56426       -2.80835
H         15.56255       18.12533       -4.45138
H         17.12733       18.53284       -3.71323
H         19.17297       14.52840       -9.11718
H         19.12398       12.74247       -9.15251
H         23.03869       14.11482      -10.85592
H         22.18380       13.47680      -12.30054
H         22.49284       11.13642      -11.40994
H         23.39871       11.78521      -10.03078
H         24.24998       12.02192      -12.99643
H         24.97907       10.95946      -11.78066
H         25.14827       12.71627      -11.62909
