73

C          1.15272        0.06793        0.42154
C          2.66409        0.01667        0.18511
C          3.11129       -1.22142       -0.60080
C          4.62576       -1.29648       -0.81959
C          5.07723       -2.57968       -1.52604
C          6.59794       -2.66394       -1.71155
C          7.04360       -4.01321       -2.24965
O          8.47899       -4.02720       -2.35376
C          9.01995       -5.31914       -2.51840
C         10.56158       -5.23171       -2.43748
C         11.12913       -4.64989       -3.75651
C         12.64428       -4.42437       -3.80226
C         13.18169       -4.06678       -5.19110
N         14.63775       -4.00577       -5.14879
C         15.26570       -3.69994       -6.44829
C         16.75978       -3.89019       -6.36734
C         17.33713       -5.13196       -6.66373
C         18.71300       -5.35030       -6.56413
C         19.54225       -4.29824       -6.16775
C         18.99591       -3.04875       -5.87426
C         17.61377       -2.84338       -5.96892
O         17.04294       -1.62665       -5.69276
C         11.12350       -6.64543       -2.11327
C         11.29132       -6.68800       -0.60185
N         11.72944       -5.26788       -0.24585
C         10.93077       -4.37383       -1.19486
C         13.22115       -5.04325       -0.30029
C         13.97689       -5.54762        0.91157
C         13.42544       -5.70031        2.26779
O         13.65663       -6.84718        1.42273
H          0.86520        0.96038        0.99390
H          0.80627       -0.81203        0.98388
H          0.59901        0.09092       -0.52862
H          3.18968        0.03743        1.15510
H          2.98578        0.92525       -0.35138
H          2.59691       -1.24057       -1.57747
H          2.77592       -2.12816       -0.06646
H          5.13675       -1.22480        0.15700
H          4.95902       -0.41846       -1.39981
H          4.57881       -2.65717       -2.50712
H          4.73097       -3.44966       -0.94057
H          7.09777       -2.49214       -0.74327
H          6.94457       -1.86812       -2.38991
H          6.59966       -4.22051       -3.24096
H          6.72393       -4.82446       -1.56611
H          8.73042       -5.76529       -3.49008
H          8.63271       -5.99337       -1.72327
H         10.60344       -3.70558       -3.96786
H         10.84142       -5.34241       -4.56470
H         13.17473       -5.33891       -3.47963
H         12.95559       -3.62547       -3.10961
H         12.80046       -3.07951       -5.50102
H         12.79416       -4.79792       -5.93672
H         15.00589       -4.90550       -4.83025
H         15.02413       -2.65819       -6.70650
H         14.86784       -4.34274       -7.26137
H         16.68394       -5.94300       -6.99626
H         19.13527       -6.32473       -6.80760
H         20.62050       -4.44359       -6.09411
H         19.64450       -2.22128       -5.57402
H         17.74929       -0.98846       -5.50254
H         12.08365       -6.81847       -2.61650
H         10.44383       -7.43859       -2.45066
H         12.02947       -7.39489       -0.21115
H         10.33574       -6.84874       -0.08440
H         11.43419       -5.06119        0.71572
H         11.53299       -3.49010       -1.42536
H         10.02792       -4.04766       -0.66488
H         13.38637       -3.96190       -0.39886
H         13.59446       -5.52006       -1.21559
H         15.05106       -5.34253        0.82413
H         12.37205       -5.49116        2.49387
H         14.09429       -5.60694        3.12721
