49

C          4.47271        3.61898       -6.72107
C          4.28344        4.03196       -5.25957
C          4.94930        3.06755       -4.27001
C          4.76646        3.50156       -2.81293
C          5.31684        2.50464       -1.76090
C          6.78572        2.27085       -1.84870
N          7.33871        1.35287       -2.59946
N          8.70331        1.51847       -2.46896
C          8.99043        2.51384       -1.62080
N         10.18949        2.96867       -1.24249
N          7.79429        3.02491       -1.20846
N          7.78960        4.02417       -0.22096
C          7.21727        5.29922       -0.67850
C          7.28039        3.54276        1.07311
C          9.66555        0.66487       -3.18887
O         10.59900        0.09842       -2.30619
C         10.08770       -0.98538       -1.52334
O          9.57740       -1.95154       -2.39042
C          8.61561       -2.84734       -1.79864
C          8.09189       -3.73852       -2.91160
O          9.08944       -4.59468       -3.44698
H          3.97873        4.32519       -7.40100
H          4.04975        2.62214       -6.91400
H          5.53801        3.58593       -6.99470
H          3.20687        4.09905       -5.03071
H          4.68837        5.04708       -5.10699
H          6.02294        2.98519       -4.51092
H          4.53425        2.05410       -4.40690
H          3.69391        3.62311       -2.59538
H          5.21952        4.49428       -2.66268
H          4.83957        1.52511       -1.90667
H          5.05245        2.84174       -0.74965
H         10.99910        2.36462       -1.34568
H         10.18508        3.68285       -0.51796
H          7.64230        5.55677       -1.65532
H          7.51245        6.07089        0.04285
H          6.11674        5.28653       -0.74765
H          7.79198        2.61055        1.34054
H          6.18954        3.37802        1.08673
H          7.52629        4.30062        1.82667
H         10.23864        1.28492       -3.89093
H          9.06095       -0.07950       -3.72267
H          9.29522       -0.62912       -0.83008
H         10.95959       -1.34061       -0.94934
H          7.79023       -2.26471       -1.34638
H          9.10087       -3.45707       -1.01721
H          7.63103       -3.10869       -3.69634
H          7.30777       -4.39188       -2.50280
H          9.78539       -4.04046       -3.83513
