36

C          6.43929        1.45174       -0.85046
C          5.13221        0.91171       -0.31029
O          5.42328       -0.29020        0.44671
C          4.27951       -0.87197        1.00230
N          4.72295       -2.04605        1.75436
C          5.31031       -1.98062        2.97290
C          5.54284       -0.75346        3.78797
C          6.11478       -1.04382        5.18227
C          6.31332        0.24186        5.99076
S          6.95606       -0.18859        7.62590
O          5.90996       -0.85009        8.37766
O          8.25053       -0.79089        7.43475
O          7.18847        1.28295        8.25170
N          5.66631       -3.23626        3.28567
C          5.32318       -4.10826        2.26782
C          4.73135       -3.36570        1.28435
C          4.18584       -3.77845       -0.03526
H          6.24912        2.35780       -1.44035
H          6.92963        0.71634       -1.50096
H          7.12608        1.71340       -0.03484
H          4.43088        0.66201       -1.12655
H          4.63697        1.64333        0.35409
H          3.55669       -1.21115        0.24010
H          3.75268       -0.18966        1.69632
H          4.58694       -0.20980        3.87622
H          6.21724       -0.09161        3.21877
H          7.08943       -1.55067        5.09817
H          5.43465       -1.70823        5.73914
H          5.37258        0.78667        6.15070
H          7.05212        0.91465        5.53339
H          6.55075        1.40022        8.98278
H          6.12626       -3.49763        4.15380
H          5.52400       -5.17085        2.32449
H          4.35018       -4.85216       -0.17827
H          4.68386       -3.24662       -0.85831
H          3.10462       -3.59240       -0.10689
