79

C          0.80118       -0.57515        0.52555
C          2.32854       -0.49352        0.46365
C          2.91466        0.60880        1.35348
C          4.44398        0.68744        1.30259
C          5.03504        1.78446        2.19457
C          6.56636        1.83464        2.15873
C          7.16503        2.93102        3.04709
C          8.69770        2.94822        3.02699
C          9.29532        4.07445        3.88154
C         10.83611        4.05354        3.86178
P         11.59135        5.54552        4.56302
C         11.17280        5.81860        6.30969
C         11.63452        7.21257        6.81521
C         10.93609        7.59612        8.06981
C         11.49529        7.80227        9.26742
F         12.79646        7.65274        9.49671
F         10.83915        8.19044       10.34428
F          9.59384        7.78109        7.94697
C         13.38955        5.61918        4.28842
C         13.83836        6.04638        2.86971
C         13.20005        7.32711        2.31507
S         13.14988        8.63277        3.57948
C         13.14668       10.14191        2.56737
S         13.41592       10.15785        0.94401
N         12.94212       11.23670        3.35641
C         12.52579       11.13773        4.73787
C         13.45737       11.34140        5.76175
C         13.04265       11.27914        7.09394
C         11.70302       11.02554        7.40221
C         10.77209       10.83312        6.37552
C         11.18001       10.88985        5.04198
C         13.15641       12.57402        2.83944
C         12.06113       13.41425        2.62808
C         12.27525       14.71479        2.16650
C         13.57392       15.16827        1.92190
C         14.66446       14.32117        2.14232
C         14.46012       13.02109        2.60453
H          0.41445       -1.37486       -0.12065
H          0.33652        0.36766        0.20059
H          0.45296       -0.77853        1.54924
H          2.64752       -0.32543       -0.57899
H          2.76188       -1.46442        0.75814
H          2.59185        0.44410        2.39676
H          2.48693        1.58278        1.05647
H          4.76676        0.85245        0.25957
H          4.86791       -0.28850        1.59806
H          4.69946        1.62994        3.23505
H          4.62857        2.76433        1.88823
H          6.90319        1.98504        1.11816
H          6.96935        0.85459        2.46842
H          6.81416        2.79573        4.08485
H          6.78327        3.91466        2.72198
H          9.05167        3.05980        1.98758
H          9.08293        1.97650        3.38007
H          8.93472        3.98478        4.91858
H          8.92971        5.04528        3.50561
H         11.21529        3.99491        2.82736
H         11.24489        3.18342        4.39968
H         11.01679        6.64475        3.88522
H         11.60357        5.00239        6.90878
H         10.07704        5.73302        6.37455
H         11.42728        7.98548        6.05554
H         12.71746        7.22810        6.99114
H         13.79105        4.62813        4.55243
H         13.77759        6.33222        5.03157
H         13.65407        5.23099        2.15393
H         14.92923        6.17326        2.92319
H         12.17745        7.14771        1.94709
H         13.77119        7.72746        1.46237
H         14.49661       11.55021        5.50754
H         13.76725       11.44030        7.89226
H         11.37855       10.99659        8.44294
H          9.72341       10.65316        6.61505
H         10.46561       10.75180        4.22970
H         11.05029       13.05216        2.81563
H         11.42335       15.37307        1.99475
H         13.73712       16.18351        1.55973
H         15.67878       14.67391        1.95452
H         15.30153       12.34857        2.77265
