89

N         -0.84586       -0.25440        0.84491
C          0.53429       -0.10154        0.38495
C          1.20382       -1.47282        0.26102
C          2.67594       -1.37974       -0.14947
C          3.33600       -2.77395       -0.19657
C          4.83936       -2.80840       -0.28279
C          5.45553       -3.40449       -1.37785
C          6.86136       -3.48222       -1.49009
N          7.65489       -3.01960       -0.52870
N          7.03245       -2.46234        0.50385
C          5.71174       -2.27806        0.71155
C          5.36288       -1.47811        1.93372
C          4.32945       -2.07986        2.90593
C          3.85475       -1.03289        3.93030
S          2.10883       -1.20517        4.37365
C          2.17328       -2.49281        5.63180
S          3.57828       -3.14826        6.21492
N          0.91954       -2.81987        6.06293
C         -0.27395       -2.34553        5.39999
C         -1.08612       -1.39625        6.03038
C         -2.25456       -0.96405        5.40104
C         -2.61250       -1.47899        4.15119
C         -1.80321       -2.43591        3.52932
C         -0.63478       -2.87487        4.15366
C          0.71546       -3.64862        7.23068
C          0.12706       -4.90653        7.08173
C         -0.11908       -5.68625        8.21363
C          0.21707       -5.20938        9.48300
C          0.80040       -3.94613        9.62286
C          1.04981       -3.16049        8.49787
C          7.54013       -4.02354       -2.70921
C          7.16056       -3.18708       -3.94286
O          6.17092       -2.47934       -3.99508
O          8.04638       -3.37104       -4.92005
C          7.78202       -2.65874       -6.18187
C          8.80580       -3.11978       -7.19862
C          8.61385       -2.41721       -8.54940
C          9.61132       -2.88610       -9.61388
C          9.44238       -2.17435      -10.95981
C         10.42598       -2.65357      -12.03187
C         10.26867       -1.93554      -13.37687
C         11.25143       -2.42669      -14.44255
H         -1.36140        0.61929        0.74528
H         -0.87205       -0.50114        1.83585
H          1.15953        0.54166        1.04112
H          0.51323        0.38755       -0.60190
H          0.63484       -2.08624       -0.45499
H          1.13583       -1.98539        1.23720
H          3.19476       -0.72121        0.56288
H          2.77903       -0.90079       -1.13564
H          2.93870       -3.33043       -1.05692
H          3.03055       -3.34721        0.69354
H          4.84013       -3.81935       -2.17524
H          7.67999       -2.11468        1.21568
H          4.98274       -0.50743        1.56936
H          6.29185       -1.24131        2.47855
H          4.74991       -2.94698        3.43336
H          3.45379       -2.43874        2.35721
H          3.90404       -0.01471        3.51250
H          4.44765       -1.07160        4.85556
H         -0.79842       -1.00565        7.00662
H         -2.88762       -0.22337        5.89046
H         -3.52782       -1.14181        3.66402
H         -2.08614       -2.84423        2.55863
H          0.00215       -3.62583        3.68535
H         -0.13372       -5.27061        6.08777
H         -0.57647       -6.66968        8.10177
H          0.01870       -5.81990       10.36403
H          1.06072       -3.56846       10.61205
H          1.50823       -2.17623        8.59418
H          7.21915       -5.05952       -2.90560
H          8.62717       -4.03636       -2.57173
H          7.84961       -1.58031       -5.97641
H          6.75112       -2.88558       -6.48917
H          8.72117       -4.21051       -7.32787
H          9.81845       -2.92229       -6.81265
H          8.70843       -1.32577       -8.41417
H          7.58614       -2.59094       -8.91291
H          9.50155       -3.97476       -9.75915
H         10.63989       -2.73294       -9.24383
H          9.56177       -1.08625      -10.81442
H          8.40910       -2.31901      -11.32162
H         10.30036       -3.74040      -12.18281
H         11.45915       -2.51888      -11.66637
H         10.39950       -0.85051      -13.22550
H          9.23521       -2.06615      -13.73944
H         12.29365       -2.28951      -14.11877
H         11.12424       -1.88363      -15.38864
H         11.11064       -3.49722      -14.65317
