72

C          1.75569        2.09713        0.48026
C          2.81399        1.32412        0.21290
C          3.26740        0.29224        1.17761
O          2.76797        0.03913        2.25729
O          4.36351       -0.36475        0.68495
C          4.90112       -1.39394        1.54496
C          6.19114       -1.88596        0.90929
C          6.88999       -2.96008        1.75098
C          8.20505       -3.42141        1.11652
C          9.00548       -4.40136        1.98140
C         10.41591       -4.63408        1.39331
C         11.33253       -5.48645        2.22404
C         11.53941       -6.82441        1.95718
C         12.42055       -7.62658        2.71853
C         12.68352       -8.99158        2.45335
C         13.59312       -9.68383        3.22556
C         14.29146       -9.07414        4.31341
C         14.03126       -7.74644        4.59806
C         13.10934       -7.00502        3.81426
C         12.85172       -5.65333        4.05938
N         12.00538       -4.92688        3.30751
C         11.89885       -3.48240        3.62231
C         12.96214       -2.64108        2.88101
O         12.95379       -1.34366        3.40265
Si        12.16086        0.00009        2.72948
C         12.72558        0.22229        0.95314
C         10.29956       -0.28995        2.78489
C         12.67294        1.41433        3.83205
C         15.25880       -9.86934        5.14588
C         14.55559      -10.79549        6.17688
O         13.71103      -11.74354        5.51229
C         15.55908      -11.47568        7.10115
H          1.41410        2.85758       -0.22122
H          1.20739        1.97890        1.41633
H          3.38222        1.41626       -0.71382
H          4.15807       -2.20111        1.64792
H          5.06873       -0.97343        2.54891
H          6.86792       -1.02646        0.77254
H          5.97317       -2.27673       -0.09761
H          6.22006       -3.82417        1.89566
H          7.09581       -2.55924        2.75892
H          8.82890       -2.53305        0.91430
H          8.00654       -3.87574        0.13119
H          8.48153       -5.36620        2.06619
H          9.07658       -4.00751        3.00890
H         10.88769       -3.66063        1.18929
H         10.31756       -5.12385        0.41428
H         11.00959       -7.26360        1.11132
H         12.17023       -9.48727        1.62847
H         13.78940      -10.73364        3.00988
H         14.54732       -7.24942        5.42234
H         13.33418       -5.12053        4.87863
H         12.04824       -3.36593        4.70215
H         10.88884       -3.13870        3.38567
H         12.78217       -2.67135        1.78969
H         13.95575       -3.09226        3.05426
H         12.43867       -0.62073        0.30810
H         13.81634        0.34095        0.89656
H         12.26793        1.12533        0.52425
H          9.99118       -1.13103        2.14673
H          9.76656        0.59936        2.41787
H          9.95205       -0.48431        3.80927
H         13.76215        1.55456        3.81187
H         12.37062        1.23491        4.87287
H         12.20446        2.35209        3.50127
H         15.92734       -9.18407        5.68747
H         15.89255      -10.49429        4.49553
H         13.86613      -10.17580        6.77461
H         14.23175      -12.54513        5.33999
H         16.26517      -12.09726        6.52740
H         15.03536      -12.11832        7.82068
H         16.14826      -10.74033        7.66583
