41

C          2.99591        0.72354       -1.73318
C          2.68865        0.19596       -0.32419
C          2.59557       -1.34021       -0.38263
C          2.19595       -2.11823        0.87044
I          0.25523       -1.31688        1.68786
C          3.21364       -2.21212        2.03023
N          2.93487       -3.54783        2.57438
C          2.28209       -4.29490        1.66993
N          1.95158       -5.56874        1.78594
C          2.18707       -6.44937        2.91318
C          1.41384       -7.75580        2.56782
O          0.82928       -7.78064        1.48656
C          1.40761       -8.87265        3.52197
C          2.10388       -8.82239        4.74596
C          2.06054       -9.90650        5.61956
C          1.32171      -11.04570        5.28079
C          0.62654      -11.10405        4.06600
C          0.66802      -10.02681        3.18839
N          1.99474       -3.53092        0.58148
C          3.71974        0.71706        0.68458
H          2.24576        0.39129       -2.46447
H          3.98325        0.38272       -2.08074
H          3.00430        1.82121       -1.73739
H          1.69598        0.57505       -0.02950
H          3.57206       -1.75208       -0.69949
H          1.87537       -1.61058       -1.17131
H          3.08120       -1.44006        2.79221
H          4.24126       -2.16543        1.63183
H          3.40725       -3.93369        3.38290
H          1.37276       -6.05567        1.07645
H          1.79796       -6.02300        3.85183
H          3.25793       -6.67580        3.04437
H          2.68449       -7.94140        5.02479
H          2.60095       -9.86688        6.56523
H          1.28685      -11.89258        5.96727
H          0.05283      -11.99439        3.80787
H          0.13354      -10.05314        2.23881
H          1.27374       -3.81610       -0.07637
H          4.72205        0.30592        0.48615
H          3.44731        0.49194        1.72518
H          3.79750        1.80998        0.61308
