77

C         10.59127       -2.77782       -6.25136
C         11.30756       -1.48049       -5.86699
C         10.34403       -0.31626       -5.60942
C         11.05081        0.99191       -5.23721
C         10.07829        2.15642       -5.00242
C         10.81645        3.43978       -4.64113
O          9.96984        4.61576       -4.56795
C          9.04114        4.64906       -3.54135
N          9.64289        4.86762       -2.19543
C         10.69236        5.64306       -1.83854
N         11.49653        5.10698       -0.88711
N         10.98400        6.86882       -2.32190
C          9.95254        7.94068       -2.72248
C          8.62163        7.75919       -1.90180
C          8.77342        7.59784       -0.37789
C          7.61439        8.89246       -2.17325
C         10.58916        9.33025       -2.48099
O         10.99361        9.51659       -1.12206
C          9.70270        7.89770       -4.24482
C         12.41034        7.23248       -2.41085
O         12.74300        7.28623       -3.78310
C         13.84237        8.04751       -4.18872
C         14.33647        9.12547       -3.44633
C         15.40432        9.89939       -3.92308
C         15.92058       11.07066       -3.12702
C         15.96050        9.56174       -5.16222
C         15.46569        8.47729       -5.88493
C         14.40593        7.68322       -5.42674
C         13.96759        6.47488       -6.24364
C         14.26366        5.14818       -5.51616
C         12.51167        6.54058       -6.74189
H         11.30584       -3.59177       -6.43195
H          9.99624       -2.64933       -7.16765
H          9.90658       -3.10835       -5.45608
H         12.01237       -1.19646       -6.66661
H         11.92338       -1.64997       -4.96720
H          9.64109       -0.59547       -4.80459
H          9.72397       -0.15112       -6.50769
H         11.75875        1.26605       -6.03817
H         11.66387        0.83172       -4.33253
H          9.36840        1.87074       -4.20714
H          9.48045        2.33734       -5.90982
H         11.54439        3.69902       -5.41962
H         11.37853        3.32555       -3.69550
H          8.46885        3.71336       -3.42849
H          8.33711        5.45646       -3.77503
H          9.40563        4.16116       -1.50548
H         11.54947        4.10423       -0.75557
H         12.04268        5.69543       -0.27061
H          8.14845        6.84289       -2.28442
H          9.14109        8.51857        0.08770
H          9.45105        6.78922       -0.07690
H          7.79093        7.36358        0.05393
H          7.93633        9.84247       -1.72497
H          6.65400        8.63253       -1.70971
H          7.42176        9.05712       -3.24015
H          9.82329       10.06572       -2.76717
H         11.43610        9.47059       -3.17307
H         11.19636       10.45575       -0.99138
H          9.22928        6.97134       -4.57573
H         10.64854        7.99104       -4.78595
H          9.05453        8.72958       -4.54317
H         13.01371        6.44961       -1.93178
H         12.56789        8.17831       -1.88510
H         13.90770        9.38908       -2.47874
H         15.56866       11.04236       -2.08750
H         15.58766       12.02343       -3.56641
H         17.01868       11.08972       -3.11284
H         16.79383       10.14287       -5.55998
H         15.92370        8.21889       -6.84208
H         14.60867        6.49281       -7.14009
H         13.64716        5.04087       -4.61278
H         15.31874        5.08852       -5.21800
H         14.05258        4.29385       -6.17601
H         11.79368        6.38603       -5.92710
H         12.33635        5.75867       -7.49491
H         12.29659        7.50954       -7.21300
