57

C          0.99691       -0.48381       -1.26315
C          2.51206       -0.67064       -1.14366
C          2.97329       -0.84589        0.31002
C          4.47696       -1.02040        0.42761
O          4.81942       -1.09493        1.83344
C          6.20247       -1.11633        2.08852
P          6.36576       -0.64241        3.86321
C          5.48603       -1.96810        4.77632
C          5.66690       -1.98250        6.29913
C          5.66948       -0.56339        6.85641
O          6.12837        0.34770        6.14115
N          5.20261       -0.39382        8.11155
C          5.12579        0.78116        8.91093
C          5.63210        2.02589        8.50785
C          5.50632        3.11804        9.36887
C          4.88882        2.98749       10.61433
C          4.38862        1.74326       11.00869
C          4.50473        0.64342       10.16235
C          8.13954       -0.39376        4.18836
C          8.54909        1.07821        3.92581
C         10.00092        1.31327        4.27538
C         11.00177        1.20843        3.30023
C         12.34241        1.41112        3.63542
C         12.69558        1.71834        4.95178
C         11.70379        1.82483        5.93103
C         10.36440        1.62341        5.59415
H          0.69495       -0.35848       -2.31104
H          0.65877        0.40569       -0.71157
H          0.45300       -1.35097       -0.86147
H          3.02579        0.19806       -1.58792
H          2.82325       -1.54594       -1.73751
H          2.47235       -1.71762        0.76090
H          2.67490        0.03387        0.90333
H          5.01241       -0.16256       -0.02098
H          4.81977       -1.94100       -0.07875
H          6.75630       -0.36010        1.49547
H          6.67160       -2.10259        1.89717
H          5.65350        0.56939        3.85902
H          5.82180       -2.91536        4.33044
H          4.43089       -1.84154        4.48959
H          6.63435       -2.44063        6.56218
H          4.88886       -2.60948        6.75687
H          4.84002       -1.22926        8.56422
H          6.11137        2.13753        7.53990
H          5.89831        4.08562        9.05449
H          4.79768        3.84873       11.27585
H          3.90451        1.62642       11.97824
H          4.11107       -0.32775       10.47270
H          8.70092       -1.08392        3.53965
H          8.34029       -0.66419        5.23199
H          7.90897        1.73491        4.53251
H          8.37174        1.33217        2.86942
H         10.72964        0.98305        2.26622
H         13.11131        1.33852        2.86574
H         13.74121        1.88296        5.21279
H         11.97386        2.07638        6.95726
H          9.59041        1.72186        6.35971
