61

C          0.63983       -6.11272       -2.77352
C          2.16624       -6.10616       -2.88303
C          2.72093       -4.84087       -3.54686
C          4.24976       -4.82059       -3.63716
C          4.80760       -3.55521       -4.29768
C          6.34062       -3.54373       -4.35314
C          6.89271       -2.28785       -5.00046
O          8.33919       -2.36512       -4.96610
C          8.96573       -1.23075       -5.49629
C         10.44862       -1.31481       -5.31702
N         11.25407       -0.25470       -5.48532
N         12.49696       -0.64609       -5.25533
N         12.48487       -1.91668       -4.95426
N         11.20345       -2.38802       -4.98896
C         10.86792       -3.78327       -4.63491
O         11.12678       -3.91570       -3.27170
C         11.00829       -5.28801       -2.81345
C         11.42147       -5.33788       -1.35314
C         11.37232       -6.76395       -0.79528
C         13.68613       -2.72009       -4.62004
C         14.91706       -1.84240       -4.41539
C         16.13067       -2.70452       -4.03803
C         17.38578       -1.86185       -3.77458
C         18.60467       -2.70861       -3.40118
H          0.27607       -7.02978       -2.29104
H          0.16694       -6.04927       -3.76464
H          0.27840       -5.25991       -2.18008
H          2.50021       -6.99033       -3.45216
H          2.60836       -6.21002       -1.87746
H          2.37677       -3.95442       -2.98567
H          2.29224       -4.74190       -4.55958
H          4.59555       -5.70688       -4.19760
H          4.67544       -4.91793       -2.62285
H          4.45293       -2.66811       -3.74547
H          4.39878       -3.46385       -5.31853
H          6.70015       -4.42266       -4.91369
H          6.75102       -3.62301       -3.33306
H          6.57318       -1.38121       -4.45465
H          6.56054       -2.19246       -6.05032
H          8.64258       -0.29254       -5.00293
H          8.76559       -1.09955       -6.58150
H         11.50148       -4.44528       -5.25701
H          9.80818       -3.90861       -4.90368
H         11.66217       -5.93089       -3.43297
H          9.96564       -5.62573       -2.95034
H         10.76052       -4.67592       -0.77387
H         12.44026       -4.92956       -1.26031
H         10.36023       -7.18825       -0.85330
H         11.67418       -6.77339        0.25929
H         12.05135       -7.43599       -1.33919
H         13.83114       -3.43280       -5.44790
H         13.42734       -3.28241       -3.71176
H         14.71233       -1.10948       -3.62018
H         15.12819       -1.26958       -5.32950
H         16.33897       -3.42842       -4.84464
H         15.89811       -3.30127       -3.13893
H         17.17356       -1.14053       -2.96824
H         17.61204       -1.25988       -4.67004
H         18.42304       -3.29475       -2.48848
H         19.48232       -2.07534       -3.21767
H         18.86660       -3.41283       -4.20414
