97

C          1.07603        0.92792        0.76709
C          2.55311        1.02152        0.37575
C          3.14893       -0.31682       -0.07513
C          4.61919       -0.22730       -0.49598
C          5.21497       -1.56708       -0.94100
C          6.65485       -1.45952       -1.45353
C          7.24076       -2.79539       -1.92309
C          8.62750       -2.66911       -2.56156
C          9.17157       -3.99082       -3.11325
C         10.50962       -3.84696       -3.84560
C         10.98730       -5.14424       -4.50498
C         12.26736       -4.97767       -5.33011
C         12.67598       -6.25099       -6.07819
C         13.88482       -6.05134       -6.99736
C         14.20695       -7.29603       -7.83893
C         15.35868       -7.00045       -8.78861
N         15.80552       -8.17044       -9.64848
C         14.70690       -8.84408      -10.46586
C         14.77194      -10.31083      -10.05081
C         16.26310      -10.56815       -9.71779
C         16.54616       -9.29099       -8.87988
C         17.95902       -8.84735       -8.47173
C         18.21835       -8.94010       -6.94204
N         17.34020       -7.99544       -6.22885
N         17.92855      -10.31580       -6.55014
N         19.58787       -8.54426       -6.59200
C         17.19910      -10.95534      -10.94158
C         17.83113       -9.70892      -11.63969
C         18.92559       -9.93316      -12.71633
C         18.77354       -8.90194      -13.84402
C         20.34114       -9.87083      -12.12206
C         18.23121      -12.00247      -10.46596
O         19.04982      -11.53646       -9.37976
C         16.38102      -11.72650      -12.00641
H          0.67959        1.90231        1.08486
H          0.92666        0.22199        1.59774
H          0.46109        0.57815       -0.07563
H          3.13696        1.40989        1.22749
H          2.67343        1.76194       -0.43359
H          2.55404       -0.71392       -0.91693
H          3.04440       -1.05475        0.74012
H          5.21649        0.17968        0.33897
H          4.71644        0.50359       -1.31850
H          4.58166       -1.99949       -1.73586
H          5.17417       -2.28336       -0.10163
H          7.29779       -1.03077       -0.66499
H          6.68494       -0.73933       -2.29039
H          6.55037       -3.25404       -2.65308
H          7.28724       -3.49744       -1.07240
H          9.33850       -2.25406       -1.82575
H          8.57901       -1.93077       -3.38165
H          8.42819       -4.42154       -3.80758
H          9.27477       -4.72163       -2.29223
H         11.27995       -3.47994       -3.14522
H         10.41129       -3.06646       -4.62091
H         10.18608       -5.52786       -5.16128
H         11.14138       -5.91888       -3.73362
H         13.09347       -4.64823       -4.67660
H         12.11828       -4.16467       -6.06222
H         11.81942       -6.60238       -6.67988
H         12.88903       -7.05698       -5.35470
H         14.77181       -5.77596       -6.40278
H         13.68828       -5.19981       -7.67146
H         13.30201       -7.59465       -8.39124
H         14.45955       -8.13281       -7.16990
H         16.24492       -6.69510       -8.21342
H         15.09299       -6.19542       -9.48896
H         16.49332       -7.79422      -10.31257
H         14.94834       -8.69525      -11.52489
H         13.75125       -8.35704      -10.25435
H         14.35895      -10.96481      -10.82338
H         14.17172      -10.46619       -9.14299
H         16.31506      -11.40771       -9.00959
H         15.95502       -9.42070       -7.96462
H         18.13995       -7.80128       -8.76101
H         18.70975       -9.46388       -8.97504
H         16.51366       -8.49690       -5.90008
H         17.83272       -7.68457       -5.38864
H         18.40985      -10.97936       -7.16337
H         18.24439      -10.47543       -5.59140
H         19.78386       -7.58293       -6.88239
H         20.26787       -9.14642       -7.05747
H         18.25885       -9.02177      -10.89605
H         16.99916       -9.17376      -12.12948
H         18.78327      -10.93004      -13.16681
H         18.87260       -7.87503      -13.45714
H         17.79483       -8.98500      -14.33804
H         19.54748       -9.03587      -14.61200
H         20.55574       -8.85824      -11.74557
H         21.09758      -10.10447      -12.88343
H         20.47841      -10.56536      -11.28403
H         18.86750      -12.28895      -11.31881
H         17.67572      -12.90279      -10.14845
H         19.74394      -12.19723       -9.23236
H         15.67730      -11.07116      -12.53597
H         15.81668      -12.56144      -11.56894
H         17.04690      -12.15290      -12.76815
