74

C          0.84866       -0.43801       -1.27132
C          2.37066       -0.55819       -1.15722
C          2.82987       -1.27818        0.11579
C          4.35071       -1.42766        0.22440
C          4.80783       -2.17486        1.48163
C          6.32501       -2.37357        1.55856
C          6.78194       -3.16577        2.78820
C          8.29004       -3.43545        2.81173
C          8.75466       -4.24238        4.02904
C         10.24262       -4.60569        3.97460
C         10.72915       -5.39070        5.20172
C         12.18849       -5.80119        5.04472
O         12.78177       -6.37492        6.23719
C         12.30152       -7.65358        6.58408
C         13.19902       -8.19112        7.67514
N         14.17961       -7.35055        8.05930
N         15.15108       -7.63132        8.92444
C         15.08445       -8.79368        9.52369
C         14.02651       -9.75629        9.32554
C         13.11430       -9.44991        8.26557
C         12.12921      -10.40784        7.64599
O         10.97590      -10.11156        7.40189
O         12.73361      -11.56706        7.34288
C         11.92679      -12.56113        6.61335
C         12.11634      -12.40577        5.11261
C         11.39665      -13.51339        4.33037
C         11.57779      -13.37545        2.81711
N         13.94305      -10.83100       10.13074
C         12.71982      -11.61820       10.29917
C         15.04737      -11.20717       11.02334
H          0.55310        0.08208       -2.19291
H          0.42681        0.12296       -0.42396
H          0.36968       -1.42864       -1.28137
H          2.82430        0.44696       -1.18960
H          2.76475       -1.09430       -2.03739
H          2.36300       -2.27856        0.15465
H          2.44978       -0.73528        0.99929
H          4.82045       -0.42860        0.20022
H          4.72698       -1.95808       -0.66831
H          4.31174       -3.16096        1.51700
H          4.46153       -1.63169        2.37844
H          6.82621       -1.38979        1.54890
H          6.66711       -2.89387        0.64631
H          6.24235       -4.12894        2.81982
H          6.48820       -2.62541        3.70523
H          8.83662       -2.47679        2.77861
H          8.57287       -3.97490        1.89044
H          8.15784       -5.16838        4.10306
H          8.54685       -3.67278        4.95135
H         10.84246       -3.68512        3.87227
H         10.43437       -5.19555        3.06129
H         10.09036       -6.27910        5.34035
H         10.62546       -4.77439        6.10954
H         12.81752       -4.92528        4.83572
H         12.31488       -6.51651        4.21139
H         12.32013       -8.34779        5.71980
H         11.26243       -7.63677        6.95641
H         14.21922       -6.44057        7.58695
H         15.89632       -8.97811       10.22503
H         10.87720      -12.44114        6.91227
H         12.30980      -13.52484        6.97405
H         13.19399      -12.42496        4.88318
H         11.73393      -11.42078        4.79831
H         10.32275      -13.49845        4.57815
H         11.77358      -14.49591        4.65936
H         11.17691      -12.41905        2.45111
H         11.05563      -14.17937        2.28250
H         12.63935      -13.42324        2.53444
H         11.84210      -11.04439        9.98277
H         12.60779      -11.84266       11.36758
H         12.76429      -12.56094        9.73713
H         16.01639      -11.08081       10.52788
H         14.93707      -12.26815       11.27045
H         15.02871      -10.62735       11.95921
