63

C          2.47319        0.58044        1.68977
C          3.41147       -0.10340        0.69267
C          4.08183        0.87343       -0.28099
C          5.03195        0.17962       -1.26300
C          5.66143        1.13446       -2.28790
C          6.56725        0.37731       -3.24378
O          7.00617        1.24453       -4.35532
C          8.24701        1.71769       -4.32002
O          9.08956        1.51839       -3.45998
C          8.53028        2.57998       -5.54899
P         10.32804        2.73622       -5.77968
C         11.19800        1.13713       -5.75843
C         10.62163        0.18657       -6.79984
O          9.80060        0.54437       -7.63011
O         11.12978       -1.03156       -6.65096
C         10.69384       -2.06947       -7.60231
C         11.61478       -2.12324       -8.81106
C         11.23591       -3.28375       -9.73742
C         10.71907        3.69119       -7.27526
C         10.07073        5.08431       -7.20535
O         10.24339        5.56492       -5.88769
Si         9.97197        7.16478       -5.35608
C          8.13138        7.51833       -5.43371
C         10.61075        7.13117       -3.60031
C         10.93443        8.34506       -6.44807
H          2.00637       -0.14958        2.36434
H          1.66409        1.11852        1.17374
H          3.01181        1.31031        2.31185
H          2.85069       -0.85829        0.11593
H          4.19021       -0.66024        1.24082
H          4.63547        1.63963        0.28898
H          3.30424        1.41698       -0.84571
H          4.48028       -0.61162       -1.80001
H          5.82846       -0.33426       -0.69801
H          6.23953        1.91909       -1.77374
H          4.86933        1.63797       -2.86466
H          6.02953       -0.43501       -3.74977
H          7.46044       -0.02076       -2.74627
H          8.13899        3.59707       -5.38819
H          8.07719        2.16907       -6.45988
H         10.83817        3.43510       -4.67183
H         11.12567        0.72060       -4.74418
H         12.26408        1.32793       -5.95964
H          9.65362       -1.86082       -7.88488
H         10.73983       -2.99200       -7.01067
H         12.65348       -2.23594       -8.46465
H         11.55399       -1.16890       -9.35639
H         11.32516       -4.25226       -9.22540
H         11.89671       -3.30939      -10.61275
H         10.20334       -3.18914      -10.10252
H         10.39375        3.10948       -8.14872
H         11.81747        3.77126       -7.29534
H          8.99977        5.01649       -7.47234
H         10.55557        5.73359       -7.95487
H          7.56070        6.83041       -4.79366
H          7.73956        7.44481       -6.45818
H          7.92731        8.53984       -5.08139
H         10.07881        6.38726       -2.99112
H         10.46854        8.11103       -3.12279
H         11.68438        6.89992       -3.57017
H         10.56460        8.35875       -7.48281
H         12.00535        8.09937       -6.46513
H         10.83643        9.36917       -6.05920
