62

O          3.14406        1.42962       -0.03351
C          3.76345        0.14454       -0.20454
C          2.75720       -0.79934       -0.89055
C          2.39323       -0.29680       -2.26628
N          2.16619        0.97050       -2.50573
C          1.70353        1.36499       -3.84359
C          2.06386        0.16702       -4.77285
S          2.24116       -1.30252       -3.63810
C          3.32559        0.34324       -5.68347
C          4.55511        0.70373       -4.80515
C          5.99536        0.68313       -5.37116
C          6.30756        1.82136       -6.35281
C          6.96793        0.73211       -4.18079
C          3.51820       -1.01324       -6.42983
O          4.43801       -0.97383       -7.50933
C          2.97107        1.43089       -6.71425
C          0.19942        1.81658       -3.79409
C          0.01523        2.90928       -2.66415
C          1.10536        3.99650       -2.57418
C         -1.35567        3.60484       -2.72727
C         -0.20082        2.33679       -5.18757
O          0.59525        3.46490       -5.54837
C         -0.72208        0.62065       -3.47903
C          3.27475       -2.24343       -0.88768
H          3.75740        2.02208        0.42952
H          4.02714       -0.29189        0.77146
H          4.68198        0.22510       -0.81289
H          1.82206       -0.75088       -0.30142
H          2.30893        1.63903       -1.73507
H          2.29403        2.23579       -4.15667
H          1.21026       -0.07969       -5.41909
H          4.55959       -0.00681       -3.96103
H          4.39169        1.70409       -4.36371
H          6.15284       -0.27077       -5.89749
H          6.02826        2.80124       -5.93366
H          5.79194        1.69982       -7.31259
H          7.38377        1.85241       -6.57077
H          6.85206        1.66669       -3.60769
H          8.01086        0.68510       -4.52148
H          6.80614       -0.11021       -3.49099
H          2.53074       -1.37803       -6.77394
H          3.91893       -1.76390       -5.73015
H          3.98796       -0.64076       -8.30026
H          2.82590        2.41552       -6.25369
H          2.04598        1.17662       -7.25524
H          3.77362        1.53156       -7.45195
H          0.03519        2.34199       -1.71536
H          1.13319        4.61121       -3.48120
H          2.12387        3.61314       -2.40997
H          0.88372        4.65521       -1.72396
H         -1.41692        4.29232       -3.58258
H         -1.50381        4.20524       -1.82026
H         -2.19719        2.90300       -2.78662
H         -1.27148        2.59890       -5.16293
H         -0.09138        1.52529       -5.93243
H          0.29382        3.79430       -6.40886
H         -0.48214        0.17147       -2.50608
H         -0.66592       -0.16710       -4.24263
H         -1.76988        0.94030       -3.43335
H          4.23261       -2.33226       -1.41808
H          2.55675       -2.92939       -1.35567
H          3.42326       -2.58344        0.14447
