59

C          0.98709        0.02388        0.06250
C          2.50959       -0.13032        0.03129
C          3.01242       -1.38912        0.74942
C          4.53932       -1.51670        0.74266
C          5.06675       -2.74712        1.49225
C          6.60089       -2.79020        1.52510
C          7.14824       -3.96918        2.33502
S          8.97956       -3.76919        2.38674
C          9.50876       -5.03662        3.43551
N         10.42992       -4.94191        4.35857
N         10.71769       -6.23507        4.78521
C          9.93084       -7.01109        4.10936
O          9.10240       -6.36324        3.24306
N          9.80786       -8.39122        4.27859
C          9.84296       -8.94938        5.65949
C          8.62712       -9.86611        5.86614
C          8.67571      -10.97237        4.80026
N          9.22145      -10.49398        3.51893
C          9.65191       -9.25446        3.25563
N          9.92159       -8.92876        1.96660
N         10.83450       -7.92027        1.65944
C          8.55129      -10.46844        7.29701
C          8.35206       -9.36952        8.35974
O          9.47138       -8.48544        8.48361
C          7.43500      -11.53381        7.41662
C          7.43800      -12.31876        8.73372
H          0.66660        0.93445       -0.46169
H          0.61203        0.08679        1.09481
H          0.48689       -0.82921       -0.41967
H          2.97827        0.75676        0.48990
H          2.85765       -0.14705       -1.01540
H          2.56287       -2.28255        0.28124
H          2.65157       -1.38007        1.79314
H          4.97849       -0.60924        1.19243
H          4.90105       -1.54152       -0.30001
H          4.67544       -3.66645        1.02355
H          4.68003       -2.73842        2.52580
H          6.97757       -1.85012        1.96059
H          6.99407       -2.83594        0.49601
H          6.89580       -4.93279        1.87298
H          6.77803       -3.95076        3.36897
H          9.85170       -8.10169        6.34736
H         10.78952       -9.49485        5.79484
H          7.72136       -9.25602        5.70138
H          7.67596      -11.38391        4.60852
H          9.32275      -11.79748        5.13919
H          9.35321      -11.18772        2.78906
H          9.52027       -9.51765        1.23646
H         10.40118       -7.20714        1.07131
H         11.66053       -8.30950        1.20281
H          9.51980      -10.96213        7.50545
H          8.12202       -9.83376        9.32804
H          7.48034       -8.75060        8.08481
H          9.98648       -8.73174        9.26525
H          7.53470      -12.26286        6.59901
H          6.45392      -11.04983        7.26898
H          8.42670      -12.75731        8.93405
H          6.71491      -13.14302        8.68800
H          7.16383      -11.70133        9.59879
