67

C          0.76655       -0.37378       -0.01243
C          2.27204       -0.13333       -0.14870
C          2.78941        1.01241        0.72846
C          4.29870        1.24497        0.60560
C          4.82696        2.37457        1.49626
C          6.34272        2.57443        1.39339
C          6.88894        3.66260        2.32404
C          8.41003        3.82885        2.23973
C          8.97705        4.84634        3.23553
C         10.50552        4.95991        3.18495
C         11.08337        5.89518        4.25479
C         12.61645        5.89851        4.34078
C         13.29775        6.58288        3.12955
C         14.77543        6.46693        3.17616
N         15.48993        5.37851        2.71821
C         16.80666        5.59786        2.93739
N         16.85983        6.79291        3.53249
N         15.61469        7.34176        3.69085
C         18.03567        7.59524        3.91466
C         18.90980        8.03880        2.72123
C         18.16052        8.36803        1.42170
C         17.08935        9.46568        1.53984
S         15.83371        9.20512        0.27155
O         16.37628        9.50298       -1.03383
O         15.20087        7.93120        0.54524
O         14.74598       10.33946        0.66037
C         17.93127        4.70574        2.56552
H          0.42988       -1.19929       -0.65448
H          0.19150        0.52104       -0.29409
H          0.49415       -0.62662        1.02325
H          2.51740        0.07873       -1.20329
H          2.81707       -1.05815        0.10645
H          2.53755        0.80405        1.78352
H          2.25185        1.94176        0.46957
H          4.54992        1.46205       -0.44772
H          4.83055        0.30941        0.85435
H          4.55957        2.16349        2.54677
H          4.31325        3.31736        1.23852
H          6.61025        2.81558        0.34936
H          6.84886        1.61918        1.62021
H          6.60891        3.42160        3.36462
H          6.39934        4.62521        2.09547
H          8.69129        4.12078        1.21250
H          8.88868        2.84905        2.41658
H          8.67231        4.56086        4.25739
H          8.52738        5.83738        3.05202
H         10.80526        5.29125        2.17494
H         10.94209        3.95322        3.31895
H         10.69680        5.58825        5.23975
H         10.71862        6.92439        4.09737
H         12.97599        4.85836        4.42606
H         12.94264        6.41739        5.25467
H         13.05008        7.65266        3.10548
H         12.94343        6.15176        2.18118
H         15.10201        4.56164        2.25273
H         18.62851        7.01940        4.63883
H         17.60390        8.44894        4.44785
H         19.64921        7.25738        2.49410
H         19.48961        8.90644        3.06960
H         17.68368        7.45227        1.04041
H         18.89380        8.65697        0.65759
H         17.49619       10.47512        1.39831
H         16.53380        9.43679        2.48688
H         14.80167       11.05007       -0.00845
H         17.61643        3.65572        2.59421
H         18.77509        4.83201        3.25363
H         18.28121        4.92911        1.54671
