50

C          9.73387       -3.10636        3.26630
C          9.24385       -1.89143        2.47615
C          9.46404       -2.03320        0.96696
C          8.97269       -0.82645        0.16132
C          9.22584       -0.97273       -1.34478
C          8.73123        0.23937       -2.12483
O          9.06778        0.20239       -3.53502
C          8.27825       -0.68415       -4.29250
C          8.83167       -0.65887       -5.72186
S          8.08796       -2.08275       -6.66000
C          7.10991       -1.02147       -7.55649
N          7.32525        0.24620       -7.37053
C          8.52866        0.59535       -6.60981
C          8.29923        1.92242       -5.85959
C          7.77551        3.02536       -6.78181
O          7.02825        2.81473       -7.73560
O          8.19313        4.22272       -6.39408
C          7.69776        5.39599       -7.15005
C          8.61507        5.71256       -8.31346
C          9.72154        0.71326       -7.66264
O          9.57246        0.28076       -8.78171
C         11.00074        1.34294       -7.17101
H          9.56788       -2.97764        4.34412
H         10.81018       -3.27345        3.11237
H          9.20862       -4.02181        2.95566
H          9.75924       -0.98405        2.83325
H          8.17064       -1.72938        2.67296
H          8.95352       -2.94429        0.60802
H         10.53904       -2.18900        0.76924
H          9.47277        0.08642        0.52800
H          7.89414       -0.67961        0.34402
H          8.73130       -1.89126       -1.70302
H         10.30508       -1.09512       -1.53111
H          9.21301        1.15562       -1.75564
H          7.63770        0.36478       -2.01567
H          7.20477       -0.40079       -4.27615
H          8.34162       -1.72435       -3.92026
H          9.91440       -0.83834       -5.67176
H          6.33600       -1.38281       -8.23580
H          6.85927        1.05491       -7.84097
H          9.21120        2.24956       -5.35214
H          7.54449        1.78210       -5.07104
H          7.69254        6.19146       -6.39662
H          6.67255        5.18104       -7.47482
H          9.64297        5.89332       -7.97312
H          8.25855        6.62675       -8.80780
H          8.61267        4.90666       -9.05856
H         11.20073        1.15017       -6.10888
H         10.92622        2.43569       -7.29426
H         11.83223        0.98977       -7.79051
