28

C          1.23496        0.88871        0.62968
C          2.26669        0.46250        0.17640
N          3.47601        0.00564       -0.31510
C          4.65230        1.16780       -0.54906
O          5.40080        0.89461       -1.42006
C          4.55264        2.30830        0.38615
C          4.09857       -1.20283        0.52931
C          3.29707       -2.44258        0.35718
C          3.52755       -3.28004       -0.74970
C          2.77360       -4.43726       -0.92304
C          1.77759       -4.79932        0.00220
C          1.55867       -3.95842        1.10765
C          2.30296       -2.79483        1.28587
C          0.99384       -6.07050       -0.16812
H          0.30483        1.25732        1.01634
H          3.35288       -0.37413       -1.26899
H          4.43018        1.96121        1.42179
H          3.65988        2.90411        0.14089
H          5.45153        2.92464        0.28222
H          4.12058       -0.82975        1.55966
H          5.11420       -1.29044        0.12272
H          4.31506       -3.03780       -1.46881
H          2.96612       -5.08043       -1.78345
H          0.79539       -4.22553        1.84044
H          2.12192       -2.16301        2.15773
H          0.90703       -6.35360       -1.22448
H         -0.01368       -5.98293        0.25771
H          1.49561       -6.90147        0.35284
