73

C          0.78801        0.11786       -1.38640
C          2.06006        0.67704       -0.74453
C          2.69266       -0.28908        0.26385
C          3.95945        0.29084        0.90101
N          4.58192       -0.60798        1.87961
C          5.54891       -1.49025        1.54389
O          6.06037       -1.58901        0.43361
C          6.01389       -2.42710        2.71233
C          7.49586       -2.57971        2.63225
C          8.32086       -1.71899        3.38436
N          9.64360       -1.66008        3.30253
N         10.21566       -2.49797        2.44263
C          9.53460       -3.38510        1.69897
C          8.13950       -3.47200        1.75271
C          7.44740       -4.52626        0.94403
C          7.31163       -5.83593        1.74471
O          6.64745       -6.75267        0.91740
C          6.48636       -8.04952        1.51934
C          5.76084       -8.94287        0.53429
C         11.68370       -2.34123        2.31174
C         11.98394       -1.19692        1.33412
C         13.46333       -1.04028        0.95070
C         14.34957       -0.04711        1.80011
C         14.58314       -0.27414        3.34631
C         15.29496       -1.56696        3.91568
C         16.75852       -1.98273        3.48334
C         17.99706       -1.02499        3.71398
C         18.40003       -0.52440        5.16046
C         18.73583       -1.58802        6.27140
F         19.62145       -2.49218        5.82319
F         19.26246       -0.94279        7.32481
F         17.62219       -2.22776        6.67678
F         19.51640        0.22362        4.97682
F         17.41469        0.27908        5.63796
F         19.05901       -1.69522        3.20163
F         17.79835        0.09443        2.97025
F         17.00946       -3.14881        4.13374
F         16.72732       -2.24188        2.15072
F         15.26568       -1.43743        5.26249
F         14.50248       -2.63602        3.58740
F         15.25024        0.80762        3.79802
F         13.33842       -0.27396        3.93210
F         15.55254        0.05641        1.19503
F         13.72150        1.16537        1.72474
F         14.08194       -2.26044        0.89083
F         13.49751       -0.51201       -0.31198
H          0.36016        0.83126       -2.10297
H          0.01773       -0.09534       -0.63084
H          0.99137       -0.81659       -1.92910
H          1.83103        1.63160       -0.24149
H          2.79701        0.91547       -1.52937
H          2.94771       -1.23850       -0.23455
H          1.96223       -0.53211        1.05435
H          3.73963        1.23690        1.41728
H          4.71738        0.49556        0.13319
H          4.17735       -0.65742        2.80882
H          5.49909       -3.38771        2.57257
H          5.71989       -2.02207        3.68942
H          7.89166       -1.01365        4.09887
H         10.13120       -4.01782        1.04153
H          8.01923       -4.73510        0.02882
H          6.45748       -4.18189        0.62402
H          6.74941       -5.65621        2.68682
H          8.31604       -6.20937        2.04043
H          5.91510       -7.94583        2.46167
H          7.48249       -8.45907        1.77343
H          4.76849       -8.53889        0.29537
H          5.62859       -9.94489        0.96364
H          6.33101       -9.04128       -0.39851
H         12.08938       -3.29358        1.95231
H         12.05913       -2.14469        3.31923
H         11.61037       -0.24321        1.72912
H         11.46660       -1.38727        0.38212
