41

C          1.63779        0.56075       -0.42611
C          2.84200        0.61722       -0.33294
C          4.28844        0.62560       -0.17188
C          4.71674       -0.18842        1.05897
C          6.22686       -0.37540        1.21476
N          6.44575       -1.69359        1.84338
C          5.45416       -2.55125        1.69554
S          4.03154       -1.91060        0.98224
C          5.54031       -3.98874        2.10201
C          4.27787       -4.81580        1.82883
C          4.47999       -6.26956        2.23893
F          5.51050       -6.83603        1.55578
F          4.77140       -6.37296        3.56405
F          3.37130       -6.99560        1.99873
C          7.76745       -1.99032        2.45726
C          8.20032       -0.91028        3.41956
C          9.27706       -0.08824        3.05840
C          9.72123        0.92477        3.90799
C          9.07712        1.12106        5.13043
C          8.00624        0.30262        5.49561
C          7.54610       -0.72413        4.65944
C          6.39442       -1.59230        5.10471
H          0.57232        0.53289       -0.53216
H          4.65281        1.65958       -0.04816
H          4.77385        0.22194       -1.07608
H          4.27237        0.25063        1.96386
H          6.67448        0.40350        1.84396
H          6.74132       -0.37469        0.23720
H          5.77771       -4.02381        3.17895
H          6.40240       -4.44169        1.58476
H          4.01935       -4.81890        0.76028
H          3.41401       -4.43646        2.39187
H          8.49706       -2.08321        1.63761
H          7.69121       -2.96845        2.94684
H          9.78030       -0.25438        2.10307
H         10.56581        1.55014        3.61939
H          9.41289        1.90727        5.80704
H          7.51745        0.45610        6.45940
H          6.12517       -1.37602        6.14466
H          6.64228       -2.66408        5.05352
H          5.48839       -1.43219        4.49911
