45

C          0.72320       -0.17071        0.07184
C          2.25385       -0.13593        0.06825
C          2.83451        1.06689        0.82105
C          4.36577        1.13149        0.79952
C          4.93296        2.32811        1.57155
C          6.46140        2.43712        1.51471
C          7.00600        3.62482        2.31704
C          8.53239        3.77038        2.25040
C          9.03888        4.94877        3.09130
C         10.57196        5.08511        3.19380
P         11.48891        5.27188        1.63713
C         10.85988        6.66011        0.48344
C         11.29908        8.08158        0.94113
F         10.45264        8.99877        0.44458
F         11.23606        8.10401        2.31949
F         11.39381        6.40004       -0.74350
F          9.51270        6.56396        0.40230
C         13.24693        5.46580        1.86728
C         14.13242        4.76254        1.14773
H          0.33959       -1.04590       -0.46981
H          0.30156        0.72602       -0.40617
H          0.32595       -0.21528        1.09683
H          2.61949       -0.12377       -0.97259
H          2.64513       -1.06605        0.51420
H          2.48394        1.04368        1.86804
H          2.42593        1.99736        0.38853
H          4.71385        1.17198       -0.24772
H          4.77805        0.19686        1.21891
H          4.61184        2.26539        2.62591
H          4.48935        3.25882        1.17664
H          6.78210        2.52513        0.46164
H          6.91119        1.50254        1.89314
H          6.70109        3.52290        3.37265
H          6.53909        4.55680        1.95473
H          8.82525        3.89517        1.19175
H          9.00772        2.83563        2.59646
H          8.68907        4.83402        4.12926
H          8.60720        5.89373        2.73158
H         11.02920        4.18371        3.63992
H         10.86903        5.94326        3.81595
H         11.29835        4.14567        0.80427
H         12.33070        8.30480        0.62489
H         13.55124        6.19701        2.62038
H         13.83635        4.02908        0.39507
H         15.20435        4.90462        1.29510
