40

O          1.22999       -0.88251        1.45183
C          2.59768       -0.74600        1.11858
C          2.64546       -0.60620       -0.42075
C          4.04960       -0.41047       -0.90354
C          4.61381        0.87936       -0.99978
C          5.95822        0.95166       -1.37951
N          6.63718       -0.17120       -1.63204
N          6.16015       -1.40381       -1.58155
C          4.87622       -1.53145       -1.22116
C          4.38240       -2.94903       -1.24632
C          3.83410       -3.30305       -2.64331
F          3.33115       -4.59471       -2.60812
C          3.85519        2.15655       -0.80284
C          3.17857        2.61834       -2.13375
C          2.47440        3.94050       -1.95696
C          3.13048        5.13908       -2.27250
C          2.49624        6.36754       -2.07804
C          1.19870        6.40941       -1.56077
C          0.53567        5.21989       -1.24443
C          1.17121        3.99247       -1.44041
H          1.14628       -1.05189        2.40352
H          3.19196       -1.62435        1.43371
H          3.05109        0.14827        1.58689
H          2.01233        0.24523       -0.70077
H          2.18973       -1.50212       -0.86000
H          6.50852        1.88741       -1.47918
H          7.62572       -0.12816       -1.89161
H          3.59211       -3.11284       -0.50316
H          5.21776       -3.62149       -1.01387
H          4.63542       -3.26177       -3.39777
H          3.01778       -2.62535       -2.94411
H          4.53907        2.94760       -0.46440
H          3.08878        2.04616       -0.02548
H          2.47216        1.84272       -2.46784
H          3.94991        2.70171       -2.91488
H          4.14111        5.11133       -2.68750
H          3.01199        7.29276       -2.33696
H          0.70134        7.36790       -1.41085
H         -0.48087        5.24803       -0.85091
H          0.64250        3.06618       -1.20085
