80

C          0.69972       -0.28755        0.12874
C          2.22530       -0.16826        0.09599
C          2.72274        1.28100        0.04559
C          4.24906        1.40309        0.01229
C          4.75682        2.84804       -0.03816
C          6.28461        2.95154       -0.06901
C          6.81441        4.38851       -0.11548
C          8.34388        4.46271       -0.14040
C          8.90658        5.88705       -0.18882
C         10.43789        5.91947       -0.21095
C         11.03993        7.32590       -0.28984
C         12.57172        7.31560       -0.31058
C         13.20698        8.70524       -0.42149
C         14.73811        8.65919       -0.44939
C         15.39685       10.03813       -0.56851
C         16.92814        9.96280       -0.59736
C         17.63090       11.31021       -0.83147
C         19.16051       11.22651       -0.91120
C         19.79808       11.01229        0.46487
C         21.33491       11.05199        0.47626
C         21.98644       12.33072       -0.06097
N         19.27296       12.05014        1.37595
C         18.07244       12.61265        1.24503
N         17.63526       13.53570        2.14974
C         18.33850       13.94358        3.32160
C         18.57635       15.30267        3.54479
C         19.23323       15.66973        4.72273
N         19.66543       14.79308        5.63923
C         19.42501       13.49523        5.41055
C         18.75604       13.01316        4.28124
N         17.27920       12.29675        0.21380
H          0.37787       -1.33759        0.16423
H          0.24376        0.16911       -0.76245
H          0.27804        0.21845        1.01012
H          2.61961       -0.71640       -0.77660
H          2.65350       -0.66670        0.98234
H          2.33026        1.83125        0.91924
H          2.29571        1.78193       -0.84139
H          4.63941        0.85060       -0.86079
H          4.67369        0.90024        0.89929
H          4.36972        3.40281        0.83481
H          4.33718        3.35297       -0.92615
H          6.66861        2.39535       -0.94254
H          6.70077        2.44065        0.81739
H          6.43348        4.94832        0.75690
H          6.40701        4.90138       -1.00457
H          8.71953        3.89702       -1.01142
H          8.74604        3.94475        0.74831
H          8.53812        6.45884        0.68108
H          8.51458        6.40698       -1.08065
H         10.79877        5.32510       -1.06893
H         10.82375        5.40951        0.68946
H         10.68669        7.92756        0.56616
H         10.66382        7.83578       -1.19415
H         12.91737        6.69283       -1.15423
H         12.94400        6.81777        0.60206
H         12.87221        9.33150        0.42439
H         12.83846        9.20522       -1.33422
H         15.06856        8.02938       -1.29314
H         15.10563        8.15878        0.46336
H         15.06014       10.66045        0.28057
H         15.03575       10.53838       -1.48454
H         17.24279        9.29281       -1.41423
H         17.29494        9.50741        0.33814
H         17.25880       11.73689       -1.77665
H         19.55175       12.15211       -1.35722
H         19.44064       10.39781       -1.57407
H         19.48696       10.03059        0.86189
H         21.67991       10.18101       -0.10105
H         21.66824       10.86583        1.51106
H         21.79860       12.47657       -1.13258
H         23.07399       12.27930        0.07158
H         21.64022       13.23262        0.46530
H         19.86737       12.39301        2.12754
H         16.90497       14.16400        1.82662
H         18.26420       16.06086        2.82485
H         19.42777       16.72467        4.93256
H         19.76673       12.79736        6.17913
H         18.53769       11.94959        4.17989
H         16.31739       12.61823        0.24638
