66

C          7.96234       -1.92862        0.90460
C          6.47952       -1.63381        0.83465
O          6.10796       -0.54008        1.77273
C          6.23767        0.69555        1.33848
O          6.61013        1.06961        0.23474
C          5.86201        1.72814        2.41116
N          5.84261        3.05678        1.71066
C          4.43201        3.44382        1.29257
C          4.38642        4.48908        0.18046
C          5.13216        4.06059       -1.09188
C          4.93614        5.06421       -2.23201
S          5.89265        4.50037       -3.66764
O          7.29777        4.55836       -3.33394
O          5.28996        3.29593       -4.18824
Cl         5.49565        6.03514       -5.00023
C          6.58053        4.16707        2.42683
C          8.07030        3.88475        2.60367
C          8.76907        5.16375        3.08765
S         10.44611        4.73353        3.63660
C         11.06408        6.36902        4.07817
S         10.18622        7.75934        3.89376
N         12.34129        6.30268        4.55615
C         12.98811        5.05257        4.88098
C         14.05211        4.59814        4.09347
C         14.70680        3.41487        4.43806
C         14.30357        2.69036        5.56386
C         13.24515        3.15243        6.35149
C         12.58739        4.33656        6.01686
C         13.12033        7.50133        4.78108
C         13.44684        7.86891        6.08826
C         14.24558        8.99365        6.30459
C         14.71604        9.74083        5.22180
C         14.38820        9.36189        3.91610
C         13.59104        8.23972        3.69089
H          8.17760       -2.79381        0.26229
H          8.27153       -2.18296        1.92635
H          8.56252       -1.08578        0.53968
H          5.86801       -2.47078        1.18844
H          6.15663       -1.33270       -0.16945
H          6.62164        1.73008        3.20167
H          4.88740        1.51729        2.86510
H          6.35623        2.82229        0.82387
H          3.91533        3.78707        2.19919
H          3.95674        2.51342        0.95230
H          4.75130        5.46419        0.53761
H          3.31828        4.63868       -0.04211
H          4.78502        3.06716       -1.41562
H          6.21502        3.97111       -0.90275
H          5.31495        6.06599       -1.98921
H          3.89189        5.13269       -2.56480
H          6.07298        4.32504        3.38898
H          6.43562        5.06720        1.81620
H          8.51255        3.55210        1.65053
H          8.23127        3.07722        3.33494
H          8.23682        5.62303        3.93353
H          8.83026        5.91915        2.29235
H         14.36381        5.17733        3.22409
H         15.53743        3.05997        3.82756
H         14.82207        1.76997        5.83399
H         12.93979        2.59782        7.23937
H         11.76952        4.71624        6.62973
H         13.07576        7.28006        6.92722
H         14.49980        9.28651        7.32364
H         15.33995       10.61781        5.39576
H         14.75585        9.94033        3.06811
H         13.32349        7.93730        2.67829
