49

N          2.74728       -0.85948       -0.44041
C          3.51193       -0.57056       -1.66426
C          2.59846       -0.00960       -2.76592
C          2.04179        1.41080       -2.46769
C          1.06001        1.46595       -1.30290
C         -0.21725        0.61662       -1.52364
O         -1.31296        1.42162       -1.08124
C         -1.06524        2.70574       -1.54667
N          0.42239        2.90109       -1.09023
C          1.14694        4.02558       -1.74284
O          0.79923        4.48797       -2.78452
C          2.41606        4.53767       -0.97355
C          2.23900        5.86715       -0.13272
C          1.04955        5.92574        0.89189
C          0.99690        4.76321        1.93275
O          0.63148        3.65244        1.59851
O          1.35939        5.05567        3.16814
F          1.13792        7.12131        1.53986
F         -0.11186        5.90111        0.17870
F          3.38996        6.04432        0.56351
F          2.07151        6.88628       -1.00014
F          2.87539        3.56352       -0.13201
F          3.36355        4.78543       -1.90135
C         -2.02169        3.71251       -0.95109
C         -3.48245        3.40295       -1.35440
C         -4.42727        4.38207       -0.75118
C         -5.19689        5.26148       -1.40270
F         -5.21174        5.37402       -2.72870
F         -6.02817        6.10724       -0.82239
F         -4.48901        4.36561        0.60873
O          3.24618        0.00553       -4.02978
H          3.36778       -0.90353        0.36761
H          2.30791       -1.77892       -0.50589
H          4.03158       -1.44884       -2.08426
H          4.28498        0.17730       -1.42039
H          1.75384       -0.70687       -2.90173
H          1.55144        1.75042       -3.39359
H          2.90630        2.06944       -2.28630
H          1.54008        1.21525       -0.35284
H         -0.20323       -0.29861       -0.92357
H         -0.33949        0.36560       -2.59114
H         -1.02225        2.75962       -2.65016
H          0.42367        3.08231       -0.05149
H          1.57432        6.00728        3.25994
H         -1.75746        4.71736       -1.30738
H         -1.93139        3.69873        0.14487
H         -3.75103        2.38909       -1.01885
H         -3.59552        3.42808       -2.44743
H          4.11575        0.43130       -3.94492
