91

C          0.74707       -0.44996       -0.50350
C          2.26012       -0.21591       -0.50369
C          2.78727        0.34697        0.82106
C          4.30071        0.58634        0.83527
C          4.82231        1.12997        2.16973
C          6.33690        1.36223        2.19551
C          6.85398        1.88289        3.54103
C          8.37259        2.08483        3.58393
C          8.88782        2.58798        4.93710
C         10.41076        2.75046        4.99387
C         10.92914        3.23894        6.35130
C         12.45509        3.36925        6.41170
C         12.98153        3.84575        7.77017
C         14.51036        3.94015        7.82953
C         15.04124        4.41467        9.18774
C         16.57336        4.42072        9.25977
C         17.14689        4.96009       10.58084
N         16.64134        4.17586       11.71381
C         17.46875        3.39288       12.34894
S         19.09501        3.48880       11.82171
C         18.70390        4.87688       10.64388
C         19.47071        6.17368       10.98782
C         19.30760        6.67150       12.42639
O         17.91515        6.78984       12.75503
C         20.96341        6.01346       10.62278
C         21.79790        7.29525       10.70689
C         17.00252        2.45482       13.42190
C         15.76738        2.95742       14.18613
O         14.71403        3.22969       13.26438
Si        13.05096        3.18883       13.67791
C         12.58789        1.42019       14.08531
C         12.77840        4.32192       15.14496
C         12.22144        3.80544       12.11927
H          0.40091       -0.85581       -1.46416
H          0.19801        0.48625       -0.32220
H          0.45257       -1.16135        0.28264
H          2.52679        0.47330       -1.32297
H          2.77968       -1.16330       -0.72700
H          2.51999       -0.34427        1.64022
H          2.26565        1.29415        1.04647
H          4.56757        1.28732        0.02471
H          4.82126       -0.35859        0.59872
H          4.54924        0.42865        2.97812
H          4.30380        2.07606        2.40577
H          6.61213        2.07363        1.39698
H          6.85379        0.41810        1.94804
H          6.55955        1.17850        4.33926
H          6.35099        2.83622        3.78150
H          8.67076        2.79447        2.79210
H          8.87240        1.13146        3.33668
H          8.56758        1.88869        5.72996
H          8.40717        3.55320        5.17553
H         10.73359        3.45317        4.20566
H         10.88784        1.78497        4.74926
H         10.59165        2.54388        7.14071
H         10.46815        4.21346        6.59032
H         12.79386        4.06636        5.62562
H         12.91267        2.39459        6.16695
H         12.62892        3.15674        8.55839
H         12.54210        4.82957        8.01065
H         14.86831        4.62241        7.03969
H         14.94440        2.95248        7.59587
H         14.63337        3.75546        9.97320
H         14.65505        5.42633        9.40274
H         16.98266        5.04962        8.45221
H         16.96186        3.40153        9.09193
H         16.83186        6.00107       10.73883
H         15.64762        4.13384       12.00955
H         19.07090        4.52657        9.66853
H         19.03398        6.93865       10.31795
H         19.80747        7.64745       12.51492
H         19.80902        5.97318       13.12315
H         17.83231        7.37649       13.52137
H         21.01708        5.61815        9.59590
H         21.41513        5.23967       11.26894
H         21.34908        8.10504       10.11355
H         22.80691        7.11795       10.31359
H         21.91412        7.65607       11.73742
H         17.82471        2.25753       14.12382
H         16.76473        1.49498       12.93151
H         16.02146        3.87091       14.75187
H         15.47810        2.18177       14.91390
H         13.12276        1.04010       14.96714
H         12.79248        0.74806       13.24066
H         11.51319        1.35655       14.31001
H         13.33101        3.98089       16.03202
H         11.71304        4.34357       15.41601
H         13.08651        5.35294       14.92230
H         12.41065        3.13485       11.26977
H         12.56428        4.81372       11.84815
H         11.13278        3.85508       12.26345
