69

Br         1.84509       -1.09156        2.56194
C          3.55322       -1.50457        1.68673
C          3.66450       -0.79734        0.34344
C          5.00424       -1.13295       -0.33424
C          5.26643       -0.65919       -1.78425
C          5.33815        0.87712       -1.94432
C          3.99615        1.57372       -2.15233
N          3.28521        0.95943       -3.33190
C          3.05277       -0.52219       -3.11665
C          4.36848       -1.27600       -2.90015
C          4.03649       -2.76832       -2.70718
C          5.24898       -3.72064       -2.77261
C          4.88270       -5.10317       -2.28028
C          5.23517       -5.51170       -0.98602
C          4.84755       -6.76202       -0.49781
C          4.09548       -7.62277       -1.30057
C          3.74260       -7.22961       -2.59467
C          4.13603       -5.98104       -3.08043
C          2.02103        1.68829       -3.72050
O          1.71807        1.20480       -4.99299
C          0.87365        2.03590       -5.77393
C         -0.47693        2.10177       -5.43071
C         -1.37128        2.85980       -6.19507
C         -2.83439        2.93335       -5.84737
C         -0.85376        3.53653       -7.31054
C          0.49470        3.44687       -7.64376
C          1.41084        2.69268       -6.88937
C          2.86530        2.62203       -7.33527
C          3.85136        3.26763       -6.34412
C          3.30707        1.20455       -7.74334
H          3.57427       -2.59521        1.57837
H          4.33194       -1.19406        2.39217
H          3.56027        0.28642        0.50781
H          2.81056       -1.11252       -0.27468
H          5.13981       -2.22487       -0.30785
H          5.81972       -0.72677        0.28607
H          6.28528       -1.01621       -2.00147
H          5.98707        1.12487       -2.80174
H          5.81931        1.33088       -1.06565
H          4.12695        2.64154       -2.37255
H          3.32007        1.47385       -1.29353
H          3.89856        1.05277       -4.15949
H          2.53012       -0.88548       -4.00944
H          2.37222       -0.59647       -2.25747
H          4.93863       -1.18296       -3.84547
H          3.31082       -3.07551       -3.47728
H          3.52059       -2.91137       -1.74490
H          6.07667       -3.33386       -2.15935
H          5.62230       -3.76371       -3.80844
H          5.83542       -4.84929       -0.35684
H          5.14309       -7.06839        0.50620
H          3.79241       -8.59942       -0.92243
H          3.16436       -7.90113       -3.23026
H          3.86421       -5.68903       -4.09783
H          2.23852        2.76892       -3.72345
H          1.25963        1.45475       -2.95569
H         -0.83949        1.53097       -4.57309
H         -3.07594        2.31746       -4.97240
H         -3.45574        2.58801       -6.68589
H         -3.13663        3.96750       -5.62797
H         -1.52146        4.13367       -7.93408
H          0.86238        3.97494       -8.52603
H          2.91043        3.23957       -8.24671
H          4.02509        2.63476       -5.45813
H          3.49557        4.24629       -5.99569
H          4.83170        3.41215       -6.81849
H          3.32029        0.51678       -6.88546
H          4.31682        1.22867       -8.17725
H          2.62737        0.78228       -8.49466
