69

C          0.13066       -1.83624       -0.55953
C          1.64181       -1.93573       -0.33320
C          2.08703       -1.28370        0.97994
C          3.59951       -1.36108        1.20762
N          4.04778       -0.62451        2.40390
C          4.18196       -1.14176        3.64144
O          4.57884       -0.46108        4.61348
C          3.87305       -2.62856        3.90385
N          2.89632       -2.84509        4.98185
C          3.26197       -2.77150        6.29204
N          4.41146       -2.17929        6.62908
C          4.87485       -2.16040        8.02198
O          4.25408       -3.17894        8.77121
C          2.83824       -3.11840        8.65782
N          2.47131       -3.28250        7.24726
C          2.26223       -4.25732        9.49373
C          0.78512       -4.56309        9.33793
C         -0.24990       -3.62640        8.87072
O          0.25475       -4.65922        7.98501
C          1.49258       -3.08115        4.62645
C          0.62326       -1.82986        4.84923
C         -0.84312       -2.12946        4.57959
C         -1.87672       -1.00015        4.94497
C         -1.71190        0.45414        4.35143
C         -1.68889        0.71930        2.79588
C         -2.89602        0.30974        1.86130
C         -4.31789        0.91762        2.15888
F         -4.24920        2.25289        2.29007
F         -5.12553        0.61848        1.12932
F         -4.83637        0.38997        3.28114
F         -2.53505        0.72123        0.61697
F         -3.00890       -1.04134        1.85179
F         -1.49209        2.05279        2.65547
F         -0.58829        0.07939        2.29462
F         -2.69901        1.20773        4.88887
F         -0.51370        0.93441        4.81109
F         -3.11578       -1.45159        4.64953
F         -1.79316       -0.83142        6.30236
F         -1.02426       -2.48734        3.26883
F         -1.23326       -3.21028        5.33911
C          4.36571        0.79364        2.19941
H         -0.15928       -2.31807       -1.50184
H         -0.19841       -0.78840       -0.60595
H         -0.43125       -2.32312        0.25078
H          2.17391       -1.45911       -1.17297
H          1.95060       -2.99498       -0.34189
H          1.56374       -1.76305        1.82384
H          1.77298       -0.22780        0.99238
H          4.13141       -0.91630        0.35366
H          3.94348       -2.40256        1.25757
H          4.82482       -3.10029        4.19425
H          3.49618       -3.16385        3.02792
H          4.71918       -1.43468        5.94613
H          4.67988       -1.16187        8.45706
H          5.95242       -2.36719        8.04980
H          2.48657       -2.13026        9.01318
H          1.67898       -3.91450        7.06557
H          2.46202       -4.03318       10.55169
H          2.83638       -5.16595        9.25161
H          0.44888       -5.38528        9.97792
H          0.01266       -2.60260        8.58618
H         -1.28619       -3.76862        9.18533
H          1.09151       -3.93860        5.18353
H          1.47215       -3.37718        3.57100
H          0.95423       -1.01454        4.19390
H          0.71502       -1.47936        5.88626
H          3.56459        1.26856        1.61840
H          5.31231        0.89471        1.64915
H          4.45843        1.28673        3.17000
