56

C          0.34452        0.30950       -0.13277
C          1.54590        0.31723       -0.00921
C          2.98832        0.34240        0.10609
N          3.46451       -0.06054        1.49805
C          2.99643        0.90354        2.57568
C          3.56808        0.49805        3.93823
C          5.08042        0.82873        4.05124
C          5.64508        0.41167        5.41309
C          7.12557        0.72268        5.65154
C          8.17545       -0.42298        5.36738
C          8.37595       -1.01903        3.91917
C          8.85048       -0.14124        2.69534
C         10.21857        0.65039        2.71851
C         11.55370       -0.15995        2.92532
F         11.61936       -1.19476        2.06862
F         12.58421        0.66635        2.69410
F         11.64346       -0.62333        4.18257
F         10.29740        1.24619        1.49890
F         10.15253        1.61322        3.66700
F          8.87795       -0.99043        1.63424
F          7.87931        0.78992        2.44618
F          9.24400       -2.04953        4.03690
F          7.16315       -1.54543        3.52880
F          9.38491       -0.00816        5.80834
F          7.78733       -1.49639        6.12431
F          7.52375        1.84745        4.97628
F          7.29524        0.98165        6.98841
N          3.17497       -0.88785        4.17413
C          3.71796       -1.84156        3.21012
C          3.12017       -1.49841        1.84673
C          3.38511       -3.28367        3.61871
C          4.33913       -3.85419        4.67602
O          4.33366       -2.93389        5.79215
C          3.94160       -5.25827        5.11224
H         -0.72110        0.30284       -0.25142
H          3.38857        1.34968       -0.08600
H          3.45973       -0.35631       -0.60196
H          4.49410       -0.00362        1.47266
H          1.90158        0.85135        2.57710
H          3.31912        1.90674        2.26686
H          3.03078        1.11472        4.67740
H          5.21567        1.91109        3.91046
H          5.65208        0.34262        3.24764
H          5.48530       -0.65960        5.60317
H          5.11261        0.95565        6.20834
H          3.38342       -1.20136        5.12313
H          4.82395       -1.77735        3.10840
H          2.02448       -1.56703        1.85504
H          3.53050       -2.12718        1.04490
H          3.44338       -3.94016        2.73673
H          2.34752       -3.31923        3.98844
H          5.36048       -3.87492        4.24782
H          4.79319       -3.35181        6.53780
H          2.93330       -5.26149        5.54878
H          4.64515       -5.64473        5.86413
H          3.95991       -5.95603        4.26353
