38

C          3.97647        1.65457       -0.25440
C          3.33981        0.36466        0.26661
C          3.49048       -0.82701       -0.66117
O          4.92833       -1.16580       -0.83328
C          5.37569       -2.27230       -0.26439
O          4.75266       -3.10096        0.37607
C          6.88590       -2.42150       -0.49498
N          7.28325       -3.82212       -0.12904
C          6.87690       -4.79828       -1.23610
C          6.68986       -6.23866       -0.74977
C          5.44754       -6.42973        0.10617
Br         5.37006       -8.21255        0.88667
Br         6.58316       -7.30953       -2.39616
C          8.76901       -3.95113        0.18028
C          9.21566       -3.35807        1.52180
C          8.90544       -4.17028        2.76367
Br         6.95730       -4.17563        3.13205
Br        11.18658       -3.27882        1.41341
H          3.79698        2.48358        0.44130
H          3.55475        1.93983       -1.22874
H          5.06333        1.55197       -0.37608
H          2.25522        0.50667        0.40225
H          3.73499        0.10176        1.26067
H          3.15588       -0.59910       -1.68155
H          2.97853       -1.71992       -0.28507
H          7.41848       -1.71324        0.15272
H          7.16958       -2.22309       -1.53586
H          6.73432       -4.04935        0.73426
H          7.66313       -4.74063       -1.99925
H          5.93837       -4.42618       -1.66452
H          7.58104       -6.62073       -0.23492
H          4.52949       -6.28550       -0.47424
H          5.44422       -5.74001        0.96078
H          9.29635       -3.46241       -0.64789
H          9.00994       -5.02151        0.15380
H          8.90202       -2.31477        1.64595
H          9.35984       -3.72808        3.65371
H          9.20387       -5.21960        2.66833
