41

C          4.98933       -1.23951        1.73228
C          4.11516       -0.55840        0.69941
O          4.70312        0.71751        0.36997
C          3.97676        1.44560       -0.60507
C          4.65876        2.81102       -0.73888
P          6.47185        2.65695       -0.72429
C          7.07362        1.49357       -1.98633
C          8.61966        1.50522       -2.09784
O          9.18804        1.62747       -0.78618
C          9.14031        0.29270       -2.85485
C          7.20952        4.32949       -0.89136
O          6.59107        5.07595        0.12503
C          7.19053        6.38018        0.34077
C          6.47663        7.04003        1.50734
C          7.01393        8.44673        1.79006
H          4.55315       -2.20811        2.00966
H          5.07152       -0.63068        2.64204
H          5.99909       -1.42417        1.34090
H          3.09531       -0.38991        1.08888
H          4.02926       -1.16758       -0.21946
H          2.92422        1.59035       -0.30110
H          3.97086        0.91095       -1.57527
H          4.42023        3.47194        0.10720
H          4.36238        3.32670       -1.66377
H          6.85978        2.19998        0.54602
H          6.59439        1.74161       -2.94568
H          6.70488        0.50447       -1.66968
H          8.92161        2.42206       -2.63082
H          9.45760        0.74928       -0.47063
H          8.87841       -0.64038       -2.33121
H         10.23218        0.34856       -2.95078
H          8.71396        0.24031       -3.86560
H          7.01557        4.72049       -1.91117
H          8.30340        4.22831       -0.75562
H          7.08924        6.97769       -0.58374
H          8.26785        6.24746        0.55067
H          6.59090        6.40260        2.39756
H          5.39983        7.08412        1.28210
H          8.08432        8.43005        2.04012
H          6.48443        8.89569        2.63944
H          6.87997        9.11360        0.92660
