43

C          3.61032       -6.92014        2.79635
O          4.37269       -5.79381        2.25696
C          3.72990       -5.00434        1.41227
O          2.57521       -5.11539        1.03475
C          4.62089       -3.84846        0.93605
N          3.78668       -3.10302       -0.00173
C          4.12990       -2.24562       -0.94810
N          5.33499       -1.59632       -0.96779
C          5.99470       -0.97955        0.15555
C          6.69929        0.37235       -0.26443
C          5.86041        1.46316       -1.06524
C          4.50174        1.93329       -0.43184
C          3.78692        3.21756       -1.03052
C          3.37420        3.29844       -2.55662
C          2.36044        2.26626       -3.20059
C          0.92739        2.09460       -2.57053
F          0.34242        3.27798       -2.36749
F          0.18264        1.36792       -3.42208
F          1.00109        1.42492       -1.40065
F          2.19790        2.66372       -4.47845
F          2.94518        1.01888       -3.21983
F          2.83530        4.52850       -2.71770
F          4.51111        3.22189       -3.29798
F          2.66230        3.38094       -0.28770
F          4.60719        4.27026       -0.81196
F          3.62242        0.88520       -0.50499
F          4.72425        2.20950        0.87337
F          6.67748        2.51758       -1.22947
F          5.59581        0.91600       -2.29977
F          7.21033        0.92605        0.84740
F          7.71588        0.02620       -1.10459
F          5.11360       -0.75228        1.16114
F          6.96902       -1.78885        0.65613
N          3.30412       -2.00576       -1.97990
H          2.71775       -6.54979        3.31306
H          4.29396       -7.41225        3.49152
H          3.32256       -7.59445        1.98152
H          5.53423       -4.22829        0.45696
H          4.91260       -3.24088        1.80448
H          2.82438       -3.48088        0.01394
H          5.61628       -1.23657       -1.87736
H          2.50154       -2.60325       -2.14918
H          3.32389       -1.10747       -2.45447
