116

C         20.27018       12.65828        3.42796
C         19.65289       11.29529        3.10467
C         19.98155       10.79780        1.69274
C         19.37238        9.43182        1.36152
C         19.71203        8.93257       -0.04634
C         19.11314        7.56205       -0.37839
C         19.47002        7.06344       -1.78211
C         18.88267        5.69004       -2.12312
C         19.25481        5.20463       -3.52737
C         18.68384        3.82951       -3.88930
C         19.06291        3.37998       -5.30352
C         18.52559        2.00036       -5.69871
C         18.89759        1.61458       -7.13347
C         18.43246        0.21993       -7.56546
C         18.81010       -0.09726       -9.01556
C         18.46051       -1.51453       -9.48021
C         18.93357       -1.79662      -10.91076
C         18.78760       -3.26074      -11.35115
C         19.67396       -3.62784      -12.55125
C         21.17829       -3.67349      -12.24097
N         21.53692       -4.81111      -11.36318
N         21.56764       -6.10383      -11.83828
C         21.89356       -6.47513      -13.22534
C         23.37044       -6.22109      -13.54854
C         23.70577       -6.55095      -15.00714
C         25.15218       -6.18242      -15.35937
C         25.51128       -6.45167      -16.82384
C         26.92042       -5.97735      -17.19443
C         27.27297       -6.20595      -18.66752
C         28.65082       -5.66238      -19.05865
C         28.99233       -5.87088      -20.53746
C         30.34226       -5.27374      -20.94700
C         30.68132       -5.48148      -22.42660
C         32.00363       -4.83488      -22.85109
C         32.34892       -5.05071      -24.32885
C         33.65622       -4.37534      -24.75114
N         21.60653       -6.95198      -10.84583
N         21.56928       -6.29262       -9.70884
C         21.53665       -4.96593      -10.00701
N         21.49786       -4.01119       -9.05061
N         21.49063       -4.37864       -7.69212
N         21.91633       -2.71681       -9.39267
H         20.01949       12.98423        4.44698
H         19.91197       13.43377        2.73428
H         21.36739       12.62872        3.34950
H         18.55736       11.34843        3.22455
H         19.99968       10.54982        3.84054
H         21.07840       10.74715        1.57167
H         19.63300       11.54207        0.95461
H         18.27519        9.48363        1.47616
H         19.71700        8.68994        2.10365
H         20.80962        8.88699       -0.16094
H         19.36375        9.67187       -0.78927
H         18.01465        7.60783       -0.27459
H         19.45509        6.82405        0.36874
H         20.56906        7.02375       -1.88474
H         19.12623        7.80109       -2.52877
H         17.78317        5.72778       -2.02798
H         19.22432        4.95068       -1.37725
H         20.35502        5.17578       -3.62149
H         18.91079        5.94604       -4.27021
H         17.58407        3.85107       -3.79344
H         19.03625        3.08131       -3.15743
H         20.16335        3.37911       -5.40033
H         18.70040        4.12950       -6.02913
H         17.42759        1.98437       -5.58626
H         18.91304        1.23969       -4.99799
H         19.99451        1.67874       -7.25068
H         18.48037        2.36496       -7.82763
H         17.33925        0.13558       -7.44205
H         18.87186       -0.53898       -6.89305
H         19.89730        0.06673       -9.14594
H         18.32751        0.63357       -9.68658
H         17.37371       -1.68256       -9.40052
H         18.91800       -2.25161       -8.79125
H         19.98890       -1.48479      -10.99149
H         18.38782       -1.15013      -11.61682
H         17.73992       -3.47032      -11.61257
H         19.00899       -3.93242      -10.50365
H         19.54734       -2.88244      -13.35296
H         19.35928       -4.59178      -12.98187
H         21.52308       -2.78508      -11.70075
H         21.78247       -3.76882      -13.15162
H         21.21660       -5.92606      -13.89404
H         21.63581       -7.54023      -13.28249
H         23.98894       -6.82329      -12.86484
H         23.61722       -5.16496      -13.34972
H         23.01848       -6.00545      -15.67698
H         23.53354       -7.62363      -15.19589
H         25.84365       -6.73488      -14.70040
H         25.31252       -5.11208      -15.13903
H         24.77691       -5.94774      -17.47654
H         25.41482       -7.53050      -17.03504
H         27.66154       -6.48705      -16.55431
H         27.01110       -4.90115      -16.96291
H         26.50357       -5.73148      -19.30200
H         27.22526       -7.28566      -18.89279
H         29.42568       -6.13791      -18.43204
H         28.69419       -4.58384      -18.82429
H         28.19569       -5.42657      -21.16016
H         28.98440       -6.95131      -20.76546
H         31.14176       -5.71094      -20.32328
H         30.34304       -4.19233      -20.72208
H         29.86300       -5.07617      -23.04783
H         30.71603       -6.56356      -22.64448
H         32.82304       -5.22945      -22.22432
H         31.96176       -3.75090      -22.64241
H         31.52088       -4.67357      -24.95298
H         32.40962       -6.13337      -24.53226
H         33.60980       -3.28641      -24.59957
H         33.87800       -4.55280      -25.81252
H         34.50847       -4.75272      -24.16642
H         22.15591       -5.13912       -7.52394
H         20.55667       -4.70420       -7.43149
H         21.26182       -2.05391       -8.96879
H         22.83720       -2.55053       -8.97232
