77

O          2.73529        0.61072        2.15713
C          2.46500        0.19260        0.80014
C          3.07139        1.23391       -0.14294
C          4.57655        1.33729       -0.09003
N          5.11598        1.34583        1.17835
C          6.41627        1.44412        1.44903
C          7.34565        1.54011        0.40575
C          6.84443        1.53046       -0.94505
C          5.43133        1.44616       -1.17924
C          4.88533        1.42914       -2.58240
C          4.83193        0.00797       -3.16283
O          4.29009        0.10290       -4.45832
C          4.22323       -1.16176       -5.11955
C          3.62564       -0.94340       -6.50179
O          3.61562       -2.20928       -7.13125
C          3.08432       -2.17877       -8.45312
C          3.14854       -3.59936       -8.99346
O          2.63318       -3.57990      -10.31156
C          2.65905       -4.86202      -10.92059
C          7.80504        1.59746       -1.98392
C          9.15366        1.65044       -1.69402
C          9.65601        1.65376       -0.36291
C          8.73594        1.61368        0.67028
C         11.14201        1.65979       -0.10557
C         11.64615        0.38898        0.61933
C         11.24171       -0.95712       -0.01311
C         11.74778       -1.10431       -1.45919
C         11.19320       -2.32859       -2.21583
C         11.50306       -2.27443       -3.68586
C         12.46988       -2.93650       -4.34766
C         13.43095       -3.90033       -3.70332
C         12.66150       -2.74450       -5.82934
C         11.71159       -2.10705        0.88898
H          2.34495       -0.02544        2.77723
H          1.37917        0.14209        0.62871
H          2.89803       -0.80451        0.61018
H          2.63130        2.21802        0.09464
H          2.75298        0.98857       -1.16172
H          4.42685        1.19840        1.94008
H          6.70376        1.43115        2.49999
H          5.49899        2.05674       -3.24136
H          3.87733        1.86090       -2.61769
H          4.20839       -0.64733       -2.51761
H          5.84634       -0.43988       -3.18456
H          3.59587       -1.86825       -4.54417
H          5.23333       -1.60224       -5.21483
H          4.23787       -0.21463       -7.06842
H          2.60230       -0.52779       -6.41493
H          3.67531       -1.50101       -9.09773
H          2.03850       -1.81783       -8.44752
H          2.55842       -4.27573       -8.34357
H          4.19784       -3.95556       -8.98088
H          2.24504       -4.74615      -11.92899
H          2.04591       -5.59036      -10.35837
H          3.69061       -5.25313      -10.99613
H          7.48677        1.59898       -3.02503
H          9.86891        1.69059       -2.51756
H          9.07194        1.61880        1.70940
H         11.39875        2.53584        0.51072
H         11.66979        1.79115       -1.05996
H         11.28587        0.40589        1.66132
H         12.74442        0.45282        0.68408
H         10.13561       -0.99279       -0.04845
H         12.85079       -1.14510       -1.46578
H         11.48452       -0.20582       -2.04124
H         10.09724       -2.35883       -2.07796
H         11.58056       -3.25446       -1.76791
H         10.87983       -1.58591       -4.26891
H         13.26594       -4.02726       -2.62731
H         14.46918       -3.56113       -3.84697
H         13.36339       -4.89240       -4.17739
H         11.94035       -2.02891       -6.24538
H         12.54890       -3.69893       -6.36905
H         13.67688       -2.38004       -6.05408
H         12.81081       -2.15257        0.92861
H         11.35111       -3.08127        0.53360
H         11.34850       -1.97776        1.91912
