77

C          0.97249       -3.75300        3.62340
C          2.36716       -4.36756        3.49002
C          3.25610       -3.60741        2.49991
C          4.65367       -4.21293        2.39397
N          5.47888       -3.47306        1.43141
C          6.52915       -4.02500        0.79076
O          6.91526       -5.18141        0.97242
C          7.20994       -3.11487       -0.26738
C          8.66575       -3.43581       -0.42406
C          9.67285       -2.48628       -0.31655
C         11.01440       -2.89055       -0.46648
C         12.16340       -1.91673       -0.38894
O         11.67280       -0.66685        0.02077
C         12.72050        0.30430        0.22489
C         12.11175        1.57409        0.79164
C         13.16872        2.64357        1.09202
C         12.57173        3.91581        1.70186
C         13.61775        4.98395        2.03501
C         13.01063        6.24094        2.66126
N         11.36176       -4.16139       -0.67050
N         10.38041       -5.05380       -0.75239
C          9.07476       -4.76298       -0.65903
C         10.84975       -6.46226       -0.90542
C         11.65232       -6.92250        0.31401
C         10.85822       -6.96299        1.62290
C         11.73822       -7.30728        2.82967
C         10.96063       -7.30751        4.14960
C         11.88458       -7.51023        5.34719
O         11.14860       -7.53935        6.59354
C         10.85230       -6.32001        7.13670
O         11.15768       -5.25856        6.62185
C         10.12453       -6.49323        8.41855
C          9.74701       -5.43247        9.14074
H          0.35541       -4.32115        4.33134
H          0.44652       -3.74148        2.65782
H          1.02647       -2.71643        3.98664
H          2.28128       -5.41734        3.16512
H          2.85835       -4.39103        4.47654
H          3.33448       -2.55245        2.81792
H          2.78205       -3.60414        1.50433
H          4.61243       -5.25766        2.05513
H          5.15053       -4.21372        3.37831
H          5.24015       -2.50253        1.25287
H          7.07934       -2.04838       -0.04202
H          6.68651       -3.31028       -1.21871
H          9.46443       -1.43531       -0.11582
H         12.65542       -1.86814       -1.38338
H         12.91748       -2.31923        0.31670
H         13.22925        0.49771       -0.73823
H         13.46820       -0.11642        0.92376
H         11.56720        1.32091        1.71578
H         11.36910        1.96833        0.07927
H         13.71137        2.90063        0.16637
H         13.92169        2.22967        1.78462
H         12.01692        3.65268        2.61946
H         11.82670        4.33984        1.00637
H         14.16546        5.25462        1.11703
H         14.36795        4.55463        2.72024
H         12.28307        6.71150        1.98369
H         13.78185        6.98843        2.89082
H         12.48557        6.00507        3.59867
H          8.37350       -5.58877       -0.73829
H         11.46597       -6.48170       -1.81363
H          9.95284       -7.07421       -1.06332
H         12.53208       -6.26888        0.41596
H         12.03810       -7.92461        0.06960
H         10.03469       -7.69190        1.53844
H         10.38089       -5.98569        1.80945
H         12.56110       -6.57435        2.89094
H         12.21369       -8.29021        2.67228
H         10.19563       -8.09980        4.14126
H         10.43730       -6.34700        4.27171
H         12.63545       -6.70810        5.39654
H         12.39128       -8.48378        5.30350
H          9.92436       -7.51659        8.73815
H          9.96985       -4.42216        8.79347
H          9.21823       -5.54589       10.08642
