33

C          1.20580       -5.01714       -1.21852
C          2.73425       -4.98138       -1.14390
C          3.30683       -3.59347       -1.46642
C          4.83569       -3.59426       -1.42721
S          5.41045       -1.88230       -1.76318
C          7.09295       -2.15874       -1.96822
N          7.79960       -3.27112       -1.89269
N          9.10471       -2.91905       -2.17829
C          9.10966       -1.63750       -2.41002
O          7.87447       -1.06555       -2.29516
C         10.27995       -0.80020       -2.74385
S         10.92570        0.06706       -1.17832
C         12.11929       -1.11461       -1.01729
N         12.25169       -1.94596       -2.02887
C         11.46365       -1.65772       -3.22074
I         12.68227       -0.64625       -4.71992
N         13.41668       -2.84890       -2.14280
O         12.88073       -3.99130       -2.77378
O         13.78651       -3.19340       -0.84844
H          0.82408       -6.02092       -0.99184
H          0.84736       -4.74312       -2.22126
H          0.75273       -4.31888       -0.50008
H          3.15757       -5.71965       -1.84475
H          3.06623       -5.28702       -0.13813
H          2.91193       -2.85748       -0.74610
H          2.96382       -3.27340       -2.46375
H          5.26948       -4.24812       -2.19456
H          5.22457       -3.89387       -0.44510
H         10.02661        0.00098       -3.44681
H         12.76872       -1.19475       -0.14590
H         11.12620       -2.59462       -3.67025
H         13.58012       -4.23090       -3.41385
H         13.17519       -3.91502       -0.56744
