58

C          1.22369       -0.44700        0.51235
C          2.71907       -0.14085        0.40645
C          3.14181        1.07855        1.23410
C          4.63921        1.38957        1.12774
C          5.03443        2.61029        1.93904
O          6.44513        2.84147        1.77161
C          6.90291        3.97654        2.45889
C          8.38644        4.10016        2.09565
N          9.01452        5.27133        2.72024
C          8.84699        6.56638        2.29746
N          9.50625        7.40695        3.05390
N         10.10801        6.62156        3.98951
C          9.81962        5.31989        3.81654
C         10.31338        4.17246        4.62013
C          9.82109        4.08586        6.09772
C          8.30575        3.93575        6.24389
O          7.67830        5.07861        5.65149
O         10.50761        3.03875        6.75617
C         10.98486        7.26121        4.99813
C         12.38521        6.69906        5.00254
C         12.93508        6.17980        6.17899
C         14.24070        5.68534        6.19219
C         15.02828        5.68805        5.03270
C         14.46434        6.21046        3.85436
C         13.16581        6.71167        3.83595
C         16.43320        5.14761        5.04089
H          0.95183       -1.32524       -0.08836
H          0.61572        0.39824        0.15720
H          0.92943       -0.65315        1.55207
H          2.98947        0.02720       -0.64941
H          3.30161       -1.01911        0.73190
H          2.87184        0.91046        2.29139
H          2.55806        1.95701        0.90760
H          4.91492        1.56075        0.07476
H          5.22996        0.52535        1.47221
H          4.81232        2.46239        3.01419
H          4.47714        3.50581        1.60206
H          6.78249        3.88517        3.55552
H          6.35822        4.89210        2.14574
H          8.50114        4.19672        1.00804
H          8.92949        3.19906        2.40225
H          8.25292        6.84578        1.43343
H         11.41181        4.22735        4.65897
H         10.05069        3.23782        4.10433
H         10.12388        5.00117        6.62632
H          8.07569        3.85433        7.31696
H          7.96851        3.00161        5.74914
H          6.83120        5.23925        6.09332
H         10.18215        2.17943        6.43754
H         10.50485        7.15793        5.98054
H         10.96182        8.32362        4.72337
H         12.34833        6.17154        7.10032
H         14.65400        5.29355        7.12298
H         15.06168        6.23832        2.94109
H         12.76271        7.12995        2.91056
H         16.82173        5.04965        6.06174
H         17.11376        5.79722        4.47412
H         16.47275        4.15214        4.57258
