52

F          4.56337        1.67097        1.64504
C          5.05117        1.30126        0.34559
C          5.60876       -0.10646        0.38174
C          4.59382       -1.15036        0.90042
C          4.92287       -1.82847        2.25336
C          3.76477       -2.73430        2.71389
C          2.55748       -1.93001        3.22592
C          1.45063       -2.85767        3.76052
C          0.11133       -2.17704        4.06643
C         -0.90714       -3.14464        4.70926
C         -0.46253       -3.64545        6.00400
C         -0.06507       -4.03472        7.07905
C          2.99966       -0.96058        4.32272
N          4.16222       -0.07803        3.92303
C          5.32390       -0.89219        3.39917
C          4.55305        0.81577        5.08994
C          5.51595        1.93838        4.74001
C          5.83235        2.79076        5.97825
C          6.95951        3.79714        5.70818
N          8.19811        3.09829        5.33776
H          5.80657        2.05252        0.08077
H          4.18797        1.38812       -0.32973
H          6.54159       -0.12221        0.96669
H          5.90948       -0.34788       -0.64920
H          4.49392       -1.96307        0.16790
H          3.59647       -0.68483        0.94561
H          5.81436       -2.45766        2.09297
H          4.11552       -3.40452        3.51677
H          3.44632       -3.38440        1.88614
H          2.13431       -1.34037        2.39285
H          1.81530       -3.37054        4.66688
H          1.28523       -3.64934        3.01193
H         -0.32449       -1.77095        3.13989
H          0.24586       -1.32770        4.75465
H         -1.09530       -3.99508        4.03220
H         -1.87367       -2.63081        4.83133
H          0.24749       -4.39728        8.03579
H          3.33360       -1.51451        5.21416
H          2.19130       -0.28455        4.62784
H          3.87818        0.54225        3.14403
H          5.69603       -1.47396        4.25474
H          6.10152       -0.17886        3.10684
H          4.97201        0.14434        5.85394
H          3.60697        1.21745        5.48112
H          5.08432        2.57472        3.95185
H          6.47094        1.54916        4.35757
H          6.13447        2.13478        6.81353
H          4.93509        3.33224        6.31729
H          7.06226        4.45595        6.58954
H          6.67356        4.44480        4.86472
H          8.66518        2.73162        6.16860
H          8.85773        3.74172        4.90162
