47

C          5.06691       -3.46692       -1.51570
C          4.30396       -2.94219       -0.29708
C          2.81768       -2.63340       -0.57477
C          2.13578       -2.33600        0.77187
N          0.65921       -2.24335        0.67628
C         -0.16278       -3.31514        0.43264
N         -1.42313       -2.96044        0.40806
N         -1.40508       -1.61877        0.64074
C         -0.14931       -1.15893        0.80836
C          0.28002        0.24243        1.07492
C         -0.07754        0.81663        2.46472
C          0.61549        0.05266        3.61223
F          1.95234       -0.05202        3.43382
F          0.39705        0.68074        4.78685
F          0.11245       -1.21171        3.71108
O          0.33711        2.15922        2.41954
C         -2.70676       -0.92162        0.69639
C         -2.89288        0.15813       -0.36188
O         -2.67010       -0.44534       -1.62942
C         -2.80400        0.42050       -2.74563
C         -1.48788        1.11925       -3.09483
F         -0.49192        0.22812       -3.32556
F         -1.63825        1.88280       -4.19342
F         -1.05711        1.93082       -2.07742
C          2.62123       -1.49197       -1.57778
H          6.09553       -3.72892       -1.23739
H          5.12674       -2.72348       -2.32115
H          4.59355       -4.37205       -1.92319
H          4.79437       -2.03124        0.08676
H          4.36636       -3.68928        0.51165
H          2.35975       -3.55159       -0.98672
H          2.50398       -1.39770        1.20501
H          2.34353       -3.13301        1.49968
H          0.19644       -4.32871        0.28642
H         -0.17043        0.91108        0.32822
H          1.36514        0.32671        0.93849
H         -1.16235        0.72225        2.66229
H          0.11873        2.59659        3.26063
H         -2.84551       -0.49888        1.70090
H         -3.43822       -1.72524        0.55464
H         -2.22604        1.01937       -0.19563
H         -3.93211        0.52538       -0.26936
H         -3.57757        1.19123       -2.59322
H         -3.08560       -0.20024       -3.60712
H          3.10097       -0.56778       -1.21944
H          1.55971       -1.27911       -1.77077
H          3.07148       -1.74187       -2.54565
