67

F          1.69926        1.43806        0.25731
C          3.05089        1.24963        0.12073
C          3.31048        0.08495       -0.89356
C          2.80610        0.28450       -2.32480
C          1.26582        0.32398       -2.49462
C          0.68877        1.57937       -3.12030
N          0.90458        2.88803       -2.31591
C          1.01886        3.99274       -3.33322
C          1.17564        3.25481       -4.69311
O          1.30444        1.86848       -4.34352
C          2.46570        3.68912       -5.42682
C          3.73296        3.26587       -4.67465
C          4.98632        4.11628       -4.91448
C          5.93896        3.73238       -6.10704
C          5.43214        3.79138       -7.59908
C          4.94252        5.16792       -8.18166
F          5.82513        6.14306       -7.93137
F          4.78249        5.04180       -9.50600
F          3.74783        5.51010       -7.64266
F          6.46506        3.37504       -8.36476
F          4.40454        2.89714       -7.73748
F          7.04458        4.50673       -6.01509
F          6.30061        2.42932       -5.90085
F          4.67080        5.44627       -5.01075
F          5.77899        3.97907       -3.79740
C         -0.01610        3.50276       -5.70623
C         -1.52654        3.06333       -5.45722
C         -2.44514        3.68717       -4.32658
C         -2.76272        5.23461       -4.22594
C         -3.43477        6.03454       -5.41560
C         -4.85686        5.63371       -5.98337
C         -6.14519        5.62682       -5.06450
C         -6.55312        6.94972       -4.31503
F         -6.55853        7.99563       -5.15594
F         -7.78313        6.78505       -3.80762
F         -5.70233        7.20439       -3.30149
F         -7.16651        5.30229       -5.89297
F         -6.01121        4.64280       -4.13581
F         -5.08023        6.49463       -7.00388
F         -4.75407        4.37756       -6.49500
F         -3.49833        7.31950       -4.98841
F         -2.57915        5.97793       -6.46810
F         -3.52869        5.37111       -3.12076
F         -1.57140        5.86853       -3.98229
F         -3.60656        3.01463       -4.37242
F         -1.84720        3.37979       -3.10928
F         -2.16992        3.24875       -6.62716
F         -1.51188        1.71967       -5.19045
F         -0.02180        4.83991       -5.98877
F          0.29864        2.82653       -6.84715
Br         5.23507       -0.26568       -0.93300
F          2.67445       -1.00373       -0.33388
Br         3.79475        2.99075       -0.50586
F          3.54219        0.98590        1.32462
H          3.20805       -0.56255       -2.89358
H          3.29197        1.17099       -2.74975
H          0.73845        0.12514       -1.55259
H          0.95639       -0.48688       -3.16844
H         -0.40294        1.48679       -3.20986
H          1.78051        2.85004       -1.74914
H          0.12381        3.04110       -1.66658
H          1.91144        4.58105       -3.09711
H          0.14641        4.64490       -3.27689
H          2.43057        4.77988       -5.54232
H          2.46249        3.26215       -6.43283
H          3.98442        2.21813       -4.87999
H          3.59643        3.34613       -3.58561
