44

C          2.20733        1.22437        0.88075
C          0.75622        0.88065        0.67691
C          0.20670        0.81587       -0.61658
C         -1.12364        0.45886       -0.82005
C         -1.95165        0.16580        0.27471
C         -1.41886        0.23719        1.56666
C         -0.08081        0.58580        1.76290
C         -3.39699       -0.21656        0.06337
N         -4.17284        0.87234       -0.57086
N         -4.66386        0.70126       -1.83924
C         -5.22410        1.86376       -2.11836
N         -5.07913        2.74661       -1.08247
C         -4.40999        2.10258       -0.10214
C         -4.01979        2.67764        1.21277
C         -4.60987        4.07845        1.49419
O         -5.21644        4.68456        0.60751
C         -4.41332        4.65251        2.83751
C         -5.02231        5.89434        3.11588
C         -4.87569        6.47860        4.36821
C         -4.11731        5.83668        5.35546
C         -3.50284        4.60858        5.08839
C         -3.65039        4.01505        3.83740
N         -6.02049        2.15601       -3.22882
O         -5.60501        1.37280       -4.31314
O         -5.97708        3.53756       -3.53473
H          2.84174        0.34560        0.68759
H          2.40582        1.55449        1.90780
H          2.53423        2.01492        0.19238
H          0.83892        1.03686       -1.47860
H         -1.51841        0.39927       -1.83699
H         -2.04899        0.00314        2.42866
H          0.31981        0.62280        2.77735
H         -3.88699       -0.47204        1.01354
H         -3.51623       -1.06575       -0.62077
H         -5.40462        3.71722       -0.92134
H         -2.91792        2.73651        1.26138
H         -4.30828        1.97993        2.01378
H         -5.60942        6.37818        2.33569
H         -5.35331        7.43479        4.58187
H         -4.00444        6.29658        6.33792
H         -2.90944        4.11522        5.85813
H         -3.15682        3.06103        3.64754
H         -6.44173        1.12534       -4.75139
H         -5.09865        3.70139       -3.94665
