85

C          1.85488       -0.78321        1.01652
C          3.36118       -0.90507        0.94863
O          3.72580       -1.66494       -0.27069
C          4.59681       -1.09082       -1.12804
O          5.14875       -0.02460       -1.00816
C          4.81030       -1.95847       -2.37183
C          4.23866       -1.27223       -3.62126
C          4.37923       -2.11410       -4.90305
C          3.74790       -3.50458       -4.63960
C          4.31978       -4.25152       -3.42650
N          4.17684       -3.32911       -2.20644
C          5.77160       -4.73409       -3.50247
C          5.99918       -5.79573       -4.58184
O          7.39512       -5.89192       -4.76166
C          7.75438       -6.56060       -5.97064
C          9.24932       -6.36684       -6.18508
O          9.49329       -6.78099       -7.52230
C         10.79636       -6.81093       -7.97216
C         10.96821       -7.24607       -9.29342
C         12.24203       -7.32225       -9.83873
C         13.39244       -6.98499       -9.09820
C         13.18876       -6.53361       -7.79045
C         11.91175       -6.44157       -7.21898
C         14.78496       -7.09886       -9.73559
C         15.05208       -8.52588      -10.31958
C         15.10717       -9.83798       -9.47917
C         16.29020       -9.87355       -8.49012
C         13.80286      -10.12554       -8.71068
C         15.31931      -10.97278      -10.50679
C         14.83042       -6.12832      -10.94652
C         15.90139       -6.65425       -8.77258
C          5.78843       -2.18229       -5.49987
C          5.99829       -2.94755       -6.66009
C          7.26563       -3.06520       -7.23010
C          8.35676       -2.40888       -6.65432
C          8.15925       -1.61407       -5.52520
C          6.88638       -1.49758       -4.95706
H          1.58138       -0.25496        1.94031
H          1.36657       -1.76641        1.03740
H          1.46087       -0.20353        0.17140
H          3.77328       -1.48701        1.78302
H          3.86796        0.06551        0.89680
H          5.88986       -2.12930       -2.47553
H          4.72935       -0.29533       -3.71333
H          3.17020       -1.06049       -3.44647
H          3.73702       -1.62844       -5.65626
H          3.84556       -4.15533       -5.51634
H          2.66276       -3.37722       -4.48795
H          3.66334       -5.10475       -3.19115
H          4.58700       -3.78916       -1.38266
H          3.18174       -3.19082       -1.97848
H          6.07165       -5.15204       -2.52629
H          6.45502       -3.90619       -3.73232
H          5.52175       -5.49046       -5.53167
H          5.55759       -6.76905       -4.28649
H          7.20953       -6.11765       -6.82453
H          7.49969       -7.63474       -5.92089
H          9.83288       -6.96709       -5.46592
H          9.50563       -5.30140       -6.04100
H         10.08923       -7.52657       -9.87465
H         12.33932       -7.67410      -10.86664
H         14.03976       -6.24908       -7.17312
H         11.81301       -6.08821       -6.19308
H         16.01327       -8.45548      -10.85800
H         14.29805       -8.69318      -11.10693
H         16.13345       -9.21351       -7.62793
H         17.23340       -9.58158       -8.97489
H         16.42039      -10.89267       -8.09707
H         13.61073       -9.38365       -7.92504
H         13.86312      -11.11407       -8.23085
H         12.93079      -10.13259       -9.38021
H         16.25630      -10.83655      -11.06717
H         14.49549      -11.01117      -11.23507
H         15.36875      -11.94947      -10.00372
H         14.09685       -6.40079      -11.71742
H         15.82646       -6.14112      -11.41253
H         14.61481       -5.10001      -10.62401
H         15.89550       -7.19888       -7.82163
H         15.82128       -5.58089       -8.54718
H         16.88235       -6.81942       -9.23866
H          5.15694       -3.45158       -7.14126
H          7.40230       -3.66590       -8.12997
H          9.34922       -2.50322       -7.09562
H          8.99572       -1.07208       -5.08309
H          6.77128       -0.84582       -4.08953
