50

C          7.05912       -1.53842        8.97918
C          6.64280       -0.43100        8.00890
C          6.97518       -0.75856        6.54865
C          6.64821        0.38574        5.58007
C          7.10464        0.05548        4.16477
O          6.76993        1.05909        3.16829
C          7.36112        2.30799        3.33115
N          8.84338        2.28267        3.08579
C          9.34060        1.61044        2.02687
N         10.52057        0.96635        1.96214
N         10.73802        0.37830        0.74547
C          9.66632        0.65284        0.05798
N          8.77169        1.42066        0.79327
N          7.57558        2.01479        0.38410
C          9.75257        2.73684        4.14898
C         10.29842        1.60890        5.03810
O         11.01511        0.71468        4.59814
O          9.90049        1.73386        6.29540
C         10.39490        0.74138        7.27852
C         11.67491        1.21629        7.94447
C         11.54069        2.52671        8.73075
C         12.83992        2.92546        9.43496
H          6.80216       -1.28058       10.01496
H          8.14420       -1.71968        8.94080
H          6.55959       -2.48851        8.74088
H          7.13490        0.51655        8.29055
H          5.56105       -0.24109        8.10124
H          6.43088       -1.66860        6.24505
H          8.04662       -1.01263        6.46676
H          7.14170        1.30124        5.94570
H          5.56547        0.58715        5.57431
H          6.60404       -0.84973        3.79639
H          8.19241       -0.14122        4.13937
H          7.25329        2.71794        4.34670
H          6.88283        2.97194        2.60480
H         11.09149        0.76000        2.80589
H          9.47665        0.34282       -0.96499
H          7.71312        2.45701       -0.52556
H          6.84114        1.30483        0.33124
H          9.20972        3.46831        4.75640
H         10.61484        3.24845        3.69379
H         10.53041       -0.21206        6.75406
H          9.56365        0.66535        7.99044
H         12.47399        1.29526        7.18948
H         11.98506        0.40346        8.62338
H         10.73219        2.42056        9.47354
H         11.22542        3.33497        8.05143
H         13.15792        2.15655       10.15377
H         12.71937        3.86645        9.98725
H         13.65987        3.06539        8.71534
