60

C         17.06297       -4.96438        1.27961
O         16.94437       -3.75503        2.01734
C         15.60968       -3.29393        2.10107
C         15.64681       -1.93957        2.79500
O         14.30294       -1.47511        2.92179
C         14.22811       -0.14999        3.40925
C         12.78760        0.30951        3.38579
O         12.04860       -0.37433        4.40995
C         10.67867       -0.02660        4.42910
C          9.98587       -0.96437        5.43196
C         10.81169       -1.26087        6.63298
N         11.13393       -2.49886        7.05272
N         10.75349       -3.66251        6.40116
N         11.89567       -2.49413        8.18648
C         12.03568       -1.21936        8.45221
N         11.39718       -0.42720        7.52830
C         11.41770        1.05394        7.51868
C         10.05555        1.69403        7.78841
C          9.45244        1.36726        9.15856
C          8.10781        2.06992        9.38080
C          7.51408        1.82672       10.77198
C          6.16151        2.52101       10.92335
O          5.63783        2.40712       12.26396
C          4.92184        1.26912       12.53220
O          4.75841        0.37218       11.72511
C          4.39411        1.32102       13.91636
C          3.63612        0.33366       14.40562
H         18.12727       -5.22620        1.26654
H         16.70781       -4.83948        0.24058
H         16.49443       -5.78618        1.75260
H         14.97643       -3.99998        2.67619
H         15.15944       -3.18624        1.09475
H         16.24753       -1.23023        2.19589
H         16.12617       -2.03449        3.78788
H         14.82141        0.53795        2.77452
H         14.63185       -0.07943        4.44030
H         12.34166        0.09167        2.39897
H         12.74533        1.40183        3.55722
H         10.20747       -0.16582        3.43939
H         10.53912        1.03740        4.70552
H          9.77738       -1.93634        4.96782
H          9.02064       -0.53760        5.74634
H         11.59083       -4.11177        6.01940
H         10.32488       -4.29049        7.08586
H         12.58963       -0.82276        9.29730
H         11.83794        1.35971        6.55197
H         12.14012        1.33802        8.29563
H          9.34627        1.43242        6.98705
H         10.20875        2.78130        7.69879
H         10.16107        1.66554        9.95053
H          9.31181        0.27752        9.26590
H          7.39243        1.73118        8.61135
H          8.23733        3.15399        9.21952
H          8.19980        2.20368       11.54767
H          7.38378        0.74770       10.94657
H          5.42927        2.10260       10.21706
H          6.25267        3.60305       10.75507
H          4.64496        2.20583       14.50269
H          3.39611       -0.53641       13.79235
H          3.23668        0.37254       15.41830
