70

C          6.14548        1.05827        8.62125
C          5.17921        1.59523        7.56417
C          4.96185        0.62695        6.39298
C          4.25118        1.25001        5.20152
O          5.11182        2.30317        4.65617
C          5.49825        2.19760        3.36181
O          5.09443        1.36697        2.57526
C          6.50382        3.28660        3.02138
C          7.98770        3.08403        3.48974
C          8.11521        3.07082        5.02890
C          7.76387        4.39362        5.71068
C          8.19610        4.36777        7.19150
C          8.27887        5.72774        7.87369
O          7.05340        6.43845        7.62707
C          7.06599        7.79938        8.01400
C          7.28448        8.70566        6.80023
F          6.29977        8.57989        5.88430
F          7.38154        9.99604        7.15441
F          8.46235        8.37476        6.13453
N          8.41903        5.49966        4.99314
C          8.82472        5.42939        3.72211
N          9.39522        6.51330        3.14991
N          8.70701        4.29970        3.02334
C          8.71018        1.83055        2.83339
C          8.40479        1.67126        1.30882
C          8.63349        2.77829        0.24757
C         10.09877        3.20350        0.04014
C          8.05565        2.27268       -1.08596
C         10.25371        1.90996        3.10357
O         11.00212        0.93963        2.38287
C          8.22347        0.51976        3.49535
H          6.26549        1.76478        9.45424
H          7.14310        0.87104        8.19372
H          5.79095        0.10823        9.04586
H          5.55288        2.55574        7.17351
H          4.20593        1.82418        8.02697
H          4.37195       -0.24199        6.72619
H          5.92770        0.21850        6.04763
H          3.31419        1.74651        5.49122
H          4.04426        0.52552        4.40481
H          6.14051        4.22613        3.46132
H          6.48792        3.40378        1.93318
H          9.14949        2.81496        5.29585
H          7.46634        2.29493        5.44537
H          6.67710        4.56661        5.67231
H          9.18803        3.89750        7.28183
H          7.48458        3.72386        7.72750
H          9.14276        6.30234        7.49462
H          8.42745        5.59320        8.95896
H          7.84214        8.02750        8.76213
H          6.08364        8.05537        8.43744
H          8.36425        6.42503        5.41335
H          9.48609        7.37993        3.66513
H          9.57160        6.54209        2.15432
H          9.06506        4.28577        2.07159
H          7.35450        1.35592        1.22641
H          8.99888        0.80254        0.98691
H          8.03847        3.67769        0.50413
H         10.73781        2.32823       -0.14141
H         10.54936        3.73133        0.89704
H         10.18431        3.87195       -0.82763
H          8.59973        1.38071       -1.43091
H          8.13853        3.03774       -1.86963
H          6.99619        2.00058       -0.98568
H         10.44640        1.80870        4.18463
H         10.66833        2.87835        2.79821
H         10.99237        0.10125        2.86861
H          7.15061        0.34668        3.36404
H          8.46232        0.47574        4.56655
H          8.72689       -0.32903        3.01251
