84

C          9.85253      -19.26898       -9.58863
C          9.19782      -17.90781       -9.83752
C          9.72812      -16.80643       -8.91331
C          9.09537      -15.43146       -9.15157
C          9.65765      -14.34549       -8.22950
C          9.08306      -12.94537       -8.47062
C          9.72845      -11.88575       -7.57276
C          9.27150      -10.44694       -7.83577
C         10.04196       -9.43347       -6.98328
C          9.73842       -7.96150       -7.29177
C         10.64340       -6.97948       -6.52852
C         12.09948       -7.00395       -7.02058
C         13.05987       -6.31401       -6.04175
C         14.58262       -6.35742       -6.25641
N         15.14045       -7.76274       -5.93222
C         15.06114       -8.81667       -7.02500
C         15.73235       -8.30994       -8.30149
C         15.10793       -6.95653       -8.70399
C         15.20312       -5.89273       -7.59397
C         14.66545       -4.51817       -8.03321
C         14.98832       -3.37081       -7.06669
C         14.57864       -1.99257       -7.59654
C         14.94023       -0.84754       -6.64299
C         14.54651        0.53190       -7.17612
C         17.27349       -8.26866       -8.19585
C         17.94970       -9.63726       -8.05086
C         19.48019       -9.55043       -7.99117
C         20.15319      -10.91578       -7.83441
H          9.45045      -20.03971      -10.26029
H          9.68582      -19.60968       -8.55584
H         10.94041      -19.22443       -9.74881
H          8.10558      -17.99429       -9.70991
H          9.35554      -17.60802      -10.88742
H         10.82333      -16.72722       -9.03719
H          9.56711      -17.10535       -7.86231
H          8.00198      -15.50053       -9.01652
H          9.25154      -15.13448      -10.20368
H         10.75541      -14.30609       -8.35151
H          9.48456      -14.63448       -7.17780
H          7.99150      -12.95642       -8.30950
H          9.23058      -12.66648       -9.52881
H         10.82556      -11.93574       -7.70392
H          9.54356      -12.14117       -6.51451
H          8.18925      -10.35170       -7.64555
H          9.41454      -10.20700       -8.90395
H         11.12023       -9.63359       -7.12640
H          9.84471       -9.62581       -5.91384
H          8.68761       -7.74758       -7.04190
H          9.83185       -7.78076       -8.37688
H         10.61731       -7.23131       -5.45327
H         10.24679       -5.95508       -6.61015
H         12.15563       -6.53119       -8.01302
H         12.38823       -8.05416       -7.16782
H         12.86554       -6.70060       -5.02340
H         12.80034       -5.24566       -5.97638
H         15.01556       -5.74099       -5.45343
H         14.66413       -8.10956       -5.08969
H         16.13257       -7.65096       -5.68373
H         13.99975       -9.03439       -7.17904
H         15.54428       -9.71487       -6.61905
H         15.47723       -9.04857       -9.07895
H         14.06059       -7.10702       -9.00370
H         15.62931       -6.57393       -9.59317
H         16.27863       -5.74111       -7.38345
H         13.57939       -4.57221       -8.21542
H         15.11829       -4.29370       -9.01222
H         16.07351       -3.37047       -6.86024
H         14.49530       -3.53048       -6.09123
H         13.49194       -1.98083       -7.79048
H         15.06217       -1.82146       -8.57391
H         16.02551       -0.87098       -6.44642
H         14.45288       -1.01943       -5.66799
H         15.04824        0.74960       -8.13030
H         14.82074        1.32613       -6.46940
H         13.46252        0.60078       -7.34870
H         17.60283       -7.61372       -7.36619
H         17.65440       -7.77338       -9.10328
H         17.65006      -10.28016       -8.89652
H         17.59498      -10.15513       -7.14115
H         19.77402       -8.89488       -7.15329
H         19.84949       -9.05619       -8.90470
H         19.83193      -11.41888       -6.91028
H         21.24564      -10.81756       -7.79390
H         19.91139      -11.58084       -8.67604
