112

C          0.45843        1.06469       -1.35901
C          1.98301        1.18260       -1.29172
C          2.47650        2.08239       -0.15354
C          4.00204        2.19794       -0.07852
C          4.49915        3.11286        1.04506
C          6.02493        3.23350        1.10677
C          6.53167        4.15140        2.22412
C          8.05931        4.24719        2.27981
C          8.59672        5.14993        3.39568
C         10.12742        5.20263        3.42347
C         10.72064        6.07263        4.53755
C         12.25313        6.07636        4.50679
C         12.91561        6.90406        5.61520
C         14.44192        6.86797        5.48979
C         15.17344        7.65255        6.61489
C         16.64460        7.60058        6.38576
N         17.38979        6.58253        6.76292
C         18.83334        6.59629        6.44914
C         18.97223        7.66877        5.32458
S         17.48805        8.77904        5.49488
C         18.99293        7.05433        3.92259
C         19.07016        8.06987        2.77697
C         18.90641        7.38429        1.41823
S         18.82483        8.52764        0.01641
C         20.56260        8.70257       -0.41079
S         21.80501        7.95110        0.39257
N         20.72966        9.52945       -1.48406
C         19.61571       10.06731       -2.23389
C         19.29875       11.42537       -2.11683
C         18.24049       11.95252       -2.85857
C         17.50420       11.12856       -3.71543
C         17.83390        9.77572       -3.83916
C         18.89297        9.24144       -3.10387
C         22.04764        9.89070       -1.96007
C         22.50754        9.34903       -3.16242
C         23.75410        9.73570       -3.65831
C         24.53254       10.66038       -2.95796
C         24.06323       11.20055       -1.75661
C         22.81854       10.81936       -1.25473
C         19.74109        6.73945        7.72650
C         19.32806        5.61728        8.73380
C         19.72472        5.71336       10.22917
C         19.00219        4.58927       10.98943
C         21.23081        5.65950       10.52513
C         21.19109        6.44407        7.27260
O         21.64994        7.44259        6.35668
C         19.61493        8.13952        8.34899
H          0.13978        0.41959       -2.18939
H         -0.01261        2.04852       -1.50378
H          0.04899        0.63771       -0.43123
H          2.36520        1.57146       -2.25100
H          2.42543        0.17830       -1.17734
H          2.09069        1.69889        0.80781
H          2.03933        3.08996       -0.27128
H          4.38617        2.56875       -1.04550
H          4.43790        1.19134        0.05074
H          4.12304        2.73940        2.01392
H          4.05848        4.11752        0.91865
H          6.40035        3.60175        0.13548
H          6.46422        2.22832        1.23581
H          6.15183        3.78889        3.19554
H          6.10450        5.16087        2.09102
H          8.43572        4.61088        1.30724
H          8.48022        3.23347        2.40293
H          8.22244        4.79150        4.37065
H          8.19333        6.17017        3.27248
H         10.49328        5.56839        2.44769
H         10.52019        4.17526        3.52385
H         10.37024        5.70783        5.51865
H         10.34531        7.10624        4.44373
H         12.59168        6.45244        3.52554
H         12.61543        5.03526        4.57160
H         12.61131        6.51915        6.60332
H         12.56435        7.94844        5.56673
H         14.74468        7.28388        4.51586
H         14.78850        5.82135        5.50337
H         14.93243        7.22319        7.59973
H         14.84092        8.70007        6.61808
H         16.98026        5.81062        7.28483
H         19.06521        5.61594        5.99990
H         19.85374        8.29529        5.48883
H         18.10572        6.40845        3.79667
H         19.87456        6.39186        3.88608
H         20.03767        8.59357        2.80144
H         18.28114        8.83188        2.88805
H         17.95808        6.82720        1.36752
H         19.74309        6.69564        1.22000
H         19.88278       12.05814       -1.44814
H         17.99001       13.00978       -2.76613
H         16.67554       11.54198       -4.29092
H         17.26998        9.13394       -4.51663
H         19.16066        8.18833       -3.19223
H         21.89388        8.62654       -3.70052
H         24.11672        9.31135       -4.59491
H         25.50461       10.96173       -3.34935
H         24.66769       11.92469       -1.20957
H         22.44502       11.22686       -0.31514
H         19.67282        4.64480        8.33713
H         18.22828        5.55340        8.75617
H         19.33691        6.66989       10.61859
H         19.34582        3.59767       10.65646
H         17.91256        4.63314       10.84512
H         19.19655        4.66017       12.06785
H         21.70143        4.77773       10.06360
H         21.39751        5.58854       11.60857
H         21.76762        6.55385       10.18250
H         21.21528        5.44277        6.80096
H         21.84088        6.40960        8.15734
H         22.60084        7.32241        6.21511
H         18.58822        8.34045        8.68719
H         19.91000        8.92741        7.64656
H         20.26899        8.23472        9.22402
