77

C         -2.76900       -1.08958       -2.90675
C         -2.34425       -0.43684       -1.59126
N         -1.53527       -1.33223       -0.74098
C         -2.12034       -2.13757        0.16908
S         -3.77903       -2.25216        0.38292
S         -0.91848       -3.08854        1.12338
C         -1.95208       -4.14714        2.16957
C         -1.76792       -3.88574        3.67198
C         -2.19622       -2.50807        4.20530
C         -3.66992       -2.09716        3.98917
C         -4.70653       -3.18724        4.25655
N         -4.78629       -3.47676        5.74099
C         -5.68488       -4.63798        6.09541
C         -5.09538       -5.97759        5.65263
C         -5.78834       -7.18079        6.31297
C         -7.22350       -7.41679        5.82821
S         -7.94401       -8.79954        6.74374
O         -7.25462      -10.01946        6.38196
O         -8.08880       -8.38192        8.11488
O         -9.42929       -8.84131        6.09443
C         -5.14655       -2.20049        6.46964
C         -4.11393       -1.11888        6.14583
O         -4.02044       -0.91803        4.73308
C         -4.45816        0.22252        6.78805
C         -4.38047        0.19390        8.31720
O         -3.13322       -0.36293        8.70133
Si        -2.54651       -0.42980       10.28598
C         -3.61808       -1.61406       11.28074
C         -0.80419       -1.08310       10.08387
C         -2.56609        1.28087       11.05667
C         -0.08073       -1.28445       -0.97750
C          0.63362       -0.19635       -0.17264
H         -3.33360       -0.36654       -3.51048
H         -3.41250       -1.95808       -2.71973
H         -1.90222       -1.41539       -3.49824
H         -3.22325       -0.13428       -1.00888
H         -1.73173        0.45716       -1.77815
H         -1.67368       -5.18315        1.93460
H         -2.98378       -3.97091        1.81133
H         -0.70966       -4.02886        3.93809
H         -2.30165       -4.69364        4.20791
H         -1.58590       -1.72460        3.73380
H         -1.93872       -2.47170        5.27642
H         -3.80263       -1.82255        2.92949
H         -4.46883       -4.11858        3.73305
H         -5.70628       -2.84939        3.95350
H         -3.83437       -3.73347        6.04670
H         -6.66287       -4.42594        5.64255
H         -5.80274       -4.61105        7.18849
H         -4.03029       -6.00832        5.94028
H         -5.13055       -6.07946        4.55744
H         -5.78681       -7.05391        7.40677
H         -5.19237       -8.07954        6.10189
H         -7.26368       -7.68145        4.76233
H         -7.89599       -6.56777        6.01427
H         -9.49795       -9.66414        5.57190
H         -5.16281       -2.42769        7.54373
H         -6.15423       -1.91717        6.13392
H         -3.14016       -1.43965        6.56144
H         -5.45691        0.55700        6.46633
H         -3.73049        0.94881        6.39880
H         -5.21837       -0.39401        8.74355
H         -4.49785        1.22467        8.69436
H         -3.61437       -2.62290       10.84349
H         -4.65996       -1.26870       11.34406
H         -3.24309       -1.70040       12.31081
H         -0.79604       -2.07271        9.60616
H         -0.31212       -1.18072       11.06193
H         -0.19905       -0.40090        9.47085
H         -3.58656        1.66860       11.18458
H         -1.99932        1.99985       10.44883
H         -2.10370        1.24960       12.05395
H          0.05709       -1.11808       -2.05548
H          0.34272       -2.27538       -0.76253
H          0.24925        0.80326       -0.41587
H          1.70674       -0.20947       -0.40671
H          0.51775       -0.35899        0.90660
