44

C          0.89828        1.79528       -5.24113
C          2.40257        2.02288       -5.06099
C          2.90058        1.48897       -3.72911
O          4.33111        1.70709       -3.64847
C          4.87620        1.33137       -2.39639
N          6.31651        1.49977       -2.43583
C          6.89977        2.70214       -2.67788
N          8.22779        2.83790       -2.52160
C          8.95608        4.08028       -2.81527
C          8.16897        4.97235       -3.79133
C          6.71977        5.06591       -3.28023
N          6.15146        3.73363       -3.06213
C          8.83485        6.37282       -3.79862
C          8.27298        7.33813       -4.85057
C          8.91412        8.71317       -4.75414
F         10.26373        8.64996       -4.91875
F          8.42437        9.54569       -5.69924
F          8.68524        9.28627       -3.54056
C          8.16752        4.37916       -5.23666
O          7.11193        4.22036       -5.82141
C          9.49114        4.03383       -5.88103
H          0.56071        2.19625       -6.20467
H          0.31400        2.29123       -4.45299
H          0.64705        0.72530       -5.22277
H          2.63288        3.09845       -5.12382
H          2.96292        1.53131       -5.87068
H          2.70272        0.40572       -3.63441
H          2.40320        2.00125       -2.88425
H          4.67577        0.27204       -2.16421
H          4.45752        1.95651       -1.58460
H          6.88394        0.67092       -2.57796
H          8.71270        2.12123       -1.99087
H          9.93688        3.80986       -3.22847
H          9.13382        4.63059       -1.87710
H          6.07949        5.56182       -4.01631
H          6.68807        5.64253       -2.34295
H          5.26785        3.47169       -3.51271
H          9.91791        6.25937       -3.95356
H          8.71264        6.81233       -2.79639
H          7.19066        7.48957       -4.73637
H          8.44424        6.97630       -5.87433
H         10.30222        4.72079       -5.60601
H          9.36402        4.01606       -6.96834
H          9.79656        3.02255       -5.56670
