59

C          1.86769        0.38873        0.69918
C          3.33392        0.04608        0.42477
C          3.54204       -0.59225       -0.95647
C          4.99606       -0.94589       -1.20803
O          5.09727       -1.55674       -2.52223
C          6.38820       -1.97823       -2.82453
N          6.26250       -2.81597       -4.04804
C          6.10208       -2.23537       -5.24336
C          5.90160       -3.02943       -6.38380
C          5.85464       -2.42250       -7.75490
C          7.23281       -2.48134       -8.43855
C          7.24682       -2.00152       -9.87547
Br         6.21907       -3.24707      -11.00005
Br         8.52273       -1.33691       -7.43764
C          5.86025       -4.39954       -6.17172
C          6.08761       -4.92752       -4.88088
N          6.27799       -4.12644       -3.82433
C          6.21058       -6.39238       -4.61993
C          7.45290       -7.04077       -5.31293
O          8.66210       -6.38520       -4.94831
C          9.14371       -5.37673       -5.84769
C         10.64067       -5.25244       -5.73974
C         11.22830       -4.00138       -5.51996
C         12.61858       -3.86989       -5.46608
C         13.43078       -4.99502       -5.62126
C         12.84979       -6.25070       -5.83112
C         11.46257       -6.37852       -5.89335
C          7.57068       -8.50376       -4.90229
H          1.74720        0.84442        1.69066
H          1.23382       -0.50919        0.66715
H          1.47611        1.09953       -0.04290
H          3.70383       -0.63971        1.20489
H          3.94723        0.95889        0.50408
H          3.19744        0.09614       -1.74466
H          2.93396       -1.50683       -1.04312
H          5.36942       -1.66318       -0.45454
H          5.63882       -0.04702       -1.17645
H          6.83097       -2.63337       -2.05675
H          7.07730       -1.14437       -3.06155
H          6.12778       -1.14745       -5.26410
H          5.50349       -1.38176       -7.71810
H          5.15379       -2.98998       -8.38765
H          7.66786       -3.48572       -8.36186
H          8.26109       -1.99830      -10.28300
H          6.78699       -1.01515       -9.99748
H          5.69787       -5.08195       -7.00844
H          5.30864       -6.90831       -4.98584
H          6.28181       -6.54948       -3.53589
H          7.32121       -6.97306       -6.41139
H          8.68954       -4.39211       -5.62660
H          8.85281       -5.65309       -6.88190
H         10.59153       -3.12237       -5.39337
H         13.06713       -2.89051       -5.29582
H         14.51574       -4.89606       -5.57554
H         13.48205       -7.13132       -5.94972
H         11.01017       -7.35892       -6.05178
H          7.77178       -8.58131       -3.82523
H          8.40170       -8.97604       -5.44007
H          6.64916       -9.05751       -5.12740
