43

C          0.74101        0.61056        0.05442
S          2.54345        0.58582        0.16876
C          2.85728        0.27203        1.97013
C          4.31652       -0.01794        2.17936
C          5.24198        1.02676        2.01085
C          6.60797        0.80194        2.16222
C          7.05640       -0.47875        2.49383
C          6.13990       -1.51438        2.68027
C          4.75943       -1.31669        2.52616
C          3.81341       -2.46785        2.77212
C          3.00175       -0.98627       -0.63201
C          2.91574       -0.87532       -2.15864
C          3.55016       -2.08807       -2.86124
C          2.77787       -3.40797       -2.67964
N          3.40507       -4.50908       -3.38014
C          3.27459       -4.77511       -4.72974
C          4.14504       -5.79865       -5.04982
C          4.83556       -6.16056       -3.85926
C          4.36668       -5.34659       -2.84705
H          0.39472        1.47425        0.63505
H          0.31248       -0.32078        0.44342
H          0.47838        0.75566       -0.99986
H          2.18802       -0.53802        2.28313
H          2.53501        1.21264        2.44043
H          4.88676        2.03046        1.76487
H          7.31539        1.62053        2.03143
H          8.12239       -0.67028        2.61772
H          6.49977       -2.50554        2.96086
H          4.36851       -3.35437        3.09987
H          3.24896       -2.75968        1.87296
H          3.08049       -2.23883        3.56028
H          2.36594       -1.77491       -0.20697
H          4.03895       -1.14548       -0.29808
H          3.44014        0.03618       -2.48300
H          1.86544       -0.77125       -2.47588
H          4.58737       -2.22464       -2.51668
H          3.61057       -1.86608       -3.93637
H          1.74561       -3.29607       -3.04916
H          2.70831       -3.69001       -1.61723
H          2.56542       -4.22492       -5.34023
H          4.25812       -6.25086       -6.02957
H          5.57856       -6.94386       -3.75091
H          4.61890       -5.30129       -1.79205
