85

C          1.50593       -3.59651       -3.08947
C          2.42374       -2.42566       -3.44440
C          3.78622       -2.49483       -2.74260
C          4.70314       -1.31508       -3.08285
C          6.05177       -1.29178       -2.35114
N          7.00838       -2.34438       -2.75503
C          7.80369       -2.03417       -3.95752
C          8.72277       -3.17223       -4.38924
C          9.75066       -2.65745       -5.40953
C         10.66129       -3.72575       -6.03846
C          9.94527       -4.87284       -6.77539
C          8.91642       -4.44220       -7.83355
C          9.47270       -3.52340       -8.92648
C          8.38164       -3.10691       -9.90843
O          8.86333       -2.13184      -10.86353
C          8.84397       -0.83232      -10.44121
O          8.46065       -0.48682       -9.33551
C          9.34411        0.06122      -11.51410
C          9.38851        1.38681      -11.34126
C          9.36261       -3.75865       -3.13228
N          8.31230       -4.22302       -2.21324
C          7.23643       -3.44057       -2.00546
N          6.37679       -3.73223       -0.99514
C          8.48378       -5.52470       -1.54365
C          9.27005       -5.45069       -0.22646
C          9.28384       -6.77006        0.57275
C          9.90890       -7.92909       -0.22774
C          9.88482       -9.29486        0.48889
C         10.23643      -10.42789       -0.43368
C         11.29212      -11.26047       -0.36746
C         12.36249      -11.21127        0.69057
C         11.47247      -12.35344       -1.38905
C          9.98717       -6.54042        1.91721
H          0.53815       -3.50967       -3.59963
H          1.30619       -3.63522       -2.00839
H          1.94917       -4.55923       -3.38344
H          1.93378       -1.47459       -3.18009
H          2.58414       -2.39423       -4.53445
H          4.27370       -3.44793       -3.01728
H          3.60932       -2.51919       -1.64890
H          4.19227       -0.37271       -2.82805
H          4.87215       -1.27697       -4.17129
H          5.91089       -1.34967       -1.26250
H          6.55762       -0.33444       -2.55054
H          8.39784       -1.12869       -3.74078
H          7.10752       -1.77802       -4.76998
H          8.11242       -3.96619       -4.85111
H         10.38046       -1.89469       -4.92130
H          9.20434       -2.12678       -6.20592
H         11.32338       -4.15885       -5.27094
H         11.33599       -3.20761       -6.73615
H          9.44133       -5.53146       -6.04744
H         10.71469       -5.50038       -7.25198
H          8.06647       -3.93382       -7.34477
H          8.49227       -5.34939       -8.29365
H         10.28801       -4.02518       -9.47086
H          9.89419       -2.61058       -8.48139
H          7.52233       -2.67894       -9.37139
H          8.04456       -3.95362      -10.52073
H          9.66396       -0.41625      -12.44138
H          9.05688        1.83271      -10.40209
H          9.74968        2.05088      -12.12562
H         10.00356       -3.01032       -2.63451
H          9.98980       -4.62568       -3.37112
H          6.57484       -4.51432       -0.38625
H          5.40553       -3.45369       -1.07744
H          8.99468       -6.17592       -2.26499
H          7.49103       -5.97551       -1.38596
H          8.84082       -4.65515        0.40634
H         10.30678       -5.14085       -0.44121
H          8.23114       -7.04400        0.78309
H         10.95236       -7.67482       -0.48496
H          9.37763       -8.04869       -1.18704
H          8.86611       -9.45874        0.88785
H         10.55546       -9.27486        1.35863
H          9.53136      -10.58098       -1.26038
H         12.23649      -10.39197        1.40785
H         13.35655      -11.10744        0.22678
H         12.38680      -12.15608        1.25730
H         10.66497      -12.35662       -2.13249
H         11.49834      -13.34299       -0.90497
H         12.43222      -12.24465       -1.92023
H         11.05222       -6.30530        1.76650
H          9.92851       -7.42669        2.56081
H          9.53324       -5.70365        2.46723
