75

C          0.09987       -0.72682       -0.00284
C          1.62013       -0.84795       -0.13234
C          2.32196       -1.13468        1.19983
C          3.84398       -1.25959        1.07913
C          4.54319       -1.55313        2.41051
C          6.06479       -1.68344        2.28760
C          6.76230       -1.98170        3.61879
C          8.28302       -2.11982        3.49162
C          8.97536       -2.44044        4.82117
C         10.49653       -2.56968        4.68566
C         11.16093       -2.93025        6.01734
N         12.62640       -3.03719        5.90358
C         13.31497       -4.16997        5.48696
C         14.64969       -3.86084        5.43109
N         14.72312       -2.53231        5.81844
C         13.50482       -2.03641        6.10426
C         13.23855       -0.63908        6.57118
C         14.53026        0.11973        6.81022
C         15.21197       -0.01259        8.03018
C         16.42796        0.64351        8.23290
C         16.97322        1.43696        7.21922
C         16.29775        1.57761        6.00430
C         15.08185        0.91967        5.79900
C         15.85168       -4.66168        5.04321
C         17.13404       -4.26205        5.79300
C         18.34672       -5.13194        5.41214
C         19.62168       -4.62216        6.04549
C         19.97443       -4.99084        7.35219
C         21.12663       -4.47726        7.95205
C         21.94553       -3.58731        7.25136
C         21.60749       -3.21671        5.94730
C         20.45356       -3.73132        5.35140
H         -0.37211       -0.51961       -0.97294
H         -0.17948        0.08720        0.68261
H         -0.34295       -1.65428        0.38999
H          2.02882        0.08134       -0.56437
H          1.86699       -1.64759       -0.85135
H          1.91266       -2.06440        1.63352
H          2.07664       -0.33416        1.92015
H          4.25370       -0.32814        0.64975
H          4.08826       -2.05735        0.35560
H          4.13175       -2.48324        2.84078
H          4.30211       -0.75446        3.13399
H          6.47786       -0.75329        1.85908
H          6.30512       -2.48168        1.56351
H          6.34693       -2.91008        4.04832
H          6.52711       -1.18212        4.34282
H          8.70248       -1.18702        3.07599
H          8.51858       -2.91136        2.75937
H          8.56225       -3.37853        5.23049
H          8.73697       -1.65504        5.55924
H         10.92227       -1.62388        4.31112
H         10.74530       -3.34103        3.93876
H         10.79844       -3.89621        6.39483
H         10.94085       -2.17905        6.78810
H         12.80090       -5.09843        5.26898
H         15.57416       -1.98290        5.92933
H         12.63903       -0.68215        7.49523
H         12.61721       -0.12084        5.82310
H         14.78630       -0.62426        8.82890
H         16.94648        0.54059        9.18634
H         17.92006        1.95278        7.38018
H         16.71290        2.20611        5.21619
H         14.55328        1.03940        4.85073
H         16.01655       -4.55456        3.95709
H         15.62269       -5.72440        5.21145
H         16.96961       -4.31917        6.88094
H         17.39341       -3.21241        5.56884
H         18.45714       -5.14068        4.31599
H         18.15838       -6.17290        5.71950
H         19.34771       -5.69716        7.90222
H         21.39160       -4.78078        8.96556
H         22.84833       -3.19099        7.71732
H         22.24851       -2.53328        5.38900
H         20.20187       -3.44692        4.32661
