47

C          0.68773       -1.45327       -1.07820
C          1.86434       -0.48151       -0.94533
C          3.15978       -1.15233       -0.35540
C          2.98737       -1.95690        0.89065
C          2.96278       -3.37523        0.82875
Br         3.09790       -4.35031       -0.76649
C          2.86431       -4.12965        1.99484
N          2.80334       -3.48315        3.16517
N          2.80826       -2.17869        3.31883
C          2.87378       -1.43245        2.22023
C          2.84102        0.06699        2.62149
C          1.38853        0.63710        2.93690
C          0.55405        0.18351        4.20756
C          1.07365        0.37045        5.69222
C          1.49455        1.79068        6.24929
C          0.47696        3.00180        6.31013
C         -0.86786        2.91585        7.13940
C         -0.79217        2.60516        8.68057
F          0.08693        3.41605        9.29112
F         -2.00997        2.79929        9.20970
F         -0.43151        1.32523        8.89402
F         -1.44408        4.13602        7.00576
F         -1.67850        1.98975        6.56419
F          1.19701        4.04085        6.79920
F          0.11236        3.29942        5.03369
F          1.94963        1.56701        7.50641
F          2.53997        2.22024        5.49042
F          0.08985       -0.12970        6.47734
F          2.16985       -0.42337        5.84096
F         -0.63497        0.81417        4.09356
F          0.32683       -1.16100        4.07027
F          1.48584        1.97861        2.93959
F          0.61168        0.26120        1.86999
F          3.65555        0.25217        3.68412
F          3.31746        0.83679        1.60598
C          2.23525        0.15440       -2.28904
H          0.39724       -1.90040       -0.11592
H          0.90548       -2.26631       -1.78575
H         -0.19226       -0.91798       -1.45859
H          1.57477        0.32195       -0.25592
H          3.89326       -0.35806       -0.17594
H          3.57380       -1.81772       -1.12451
H          2.85023       -5.21846        2.02082
H          2.74941       -4.00403        4.04550
H          2.54392       -0.60493       -3.02298
H          3.05098        0.88270       -2.18579
H          1.36649        0.68295       -2.70359
