86

C          0.67830       -0.24508       -0.52987
C          2.19904       -0.18880       -0.36405
C          2.72675       -1.12660        0.72779
C          4.24904       -1.08427        0.89378
C          4.77692       -2.03104        1.97683
C          6.30018       -1.99353        2.13536
C          6.83092       -2.94066        3.21674
C          8.35306       -2.88808        3.38070
C          8.88877       -3.80866        4.48238
C         10.40721       -3.71776        4.66248
C         10.95329       -4.59167        5.79607
C         12.47095       -4.47928        5.96585
C         13.03760       -5.33905        7.10069
C         14.57287       -5.38692        7.10898
C         15.18305       -6.50851        7.95981
C         14.97784       -7.93075        7.42196
N         15.61015       -8.11623        6.08981
C         16.90713       -8.30471        5.76413
C         18.07696       -8.40811        6.69030
O         17.72768       -9.15582        7.83008
C         18.81541       -9.26250        8.76074
N         17.03034       -8.33629        4.42641
N         15.83154       -8.15656        3.90721
N         14.97290       -8.01988        4.89111
C         13.53487       -7.83569        4.65427
C         12.89589       -9.06193        3.97977
O         13.20506      -10.31088        4.64486
C         12.82515      -10.49632        5.94166
O         12.27538       -9.64817        6.62008
C         13.24916      -11.85876        6.43124
S         14.91334      -11.72343        7.19850
C         11.39081       -8.81231        3.80154
O         10.78313       -9.86800        3.04775
C         10.96053       -9.79305        1.68668
O         11.54583       -8.88045        1.14245
C         10.37565      -11.00097        1.00125
S         11.61497      -12.35348        0.97786
H          0.33254        0.43815       -1.31777
H          0.16378        0.03495        0.40148
H          0.34324       -1.25810       -0.79890
H          2.50698        0.84520       -0.13324
H          2.68433       -0.43995       -1.32255
H          2.41333       -2.16113        0.50025
H          2.24644       -0.87246        1.68935
H          4.56197       -0.05152        1.12867
H          4.72777       -1.33096       -0.07043
H          4.45949       -3.06308        1.74451
H          4.30340       -1.78130        2.94267
H          6.61646       -0.96181        2.36995
H          6.77412       -2.24026        1.16886
H          6.52244       -3.97466        2.98094
H          6.35255       -2.69668        4.18158
H          8.65794       -1.84967        3.59973
H          8.83442       -3.14586        2.42075
H          8.60500       -4.85299        4.25986
H          8.39411       -3.55984        5.43743
H         10.68624       -2.66707        4.85366
H         10.90594       -3.99092        3.71501
H         10.68352       -5.64864        5.61113
H         10.45571       -4.32027        6.74265
H         12.74890       -3.42511        6.13234
H         12.96243       -4.75914        5.01517
H         12.61275       -6.35682        7.02885
H         12.68061       -4.96180        8.07249
H         14.96272       -4.42558        7.47544
H         14.94917       -5.45885        6.07189
H         14.74042       -6.50828        8.96860
H         16.26044       -6.33590        8.10541
H         13.92408       -8.21429        7.32141
H         15.46226       -8.67880        8.05851
H         18.40482       -7.37941        6.95455
H         18.89851       -8.86856        6.11043
H         18.44510       -9.86149        9.59852
H         19.12435       -8.26798        9.12398
H         19.67963       -9.76841        8.30018
H         13.44380       -6.96893        3.98687
H         13.06188       -7.60128        5.60959
H         13.35125       -9.19694        2.98996
H         13.25973      -12.60768        5.63317
H         12.57374      -12.17218        7.23479
H         15.61606      -11.80205        6.04398
H         11.25618       -7.85208        3.28018
H         10.86810       -8.79479        4.76333
H         10.07375      -10.74002       -0.01809
H          9.51877      -11.39722        1.55796
H         12.43995      -11.76898        0.07640
