28

F          2.86109       -1.48437        0.19830
C          2.22240       -0.34396       -0.31045
C          2.85274        0.03664       -1.64140
C          4.36154        0.34575       -1.50246
C          5.03493        0.64279       -2.81813
C          5.74771       -0.34061       -3.46465
N          6.32759       -0.11689       -4.67337
C          6.24803        1.08717       -5.29514
C          5.57230        2.13650       -4.71975
C          4.93156        1.92540       -3.45384
N          4.26875        2.93141       -2.85897
C          5.56977        3.49421       -5.40085
C          4.23926        4.06530       -5.59942
C          3.13824        4.54659       -5.74013
H          2.32965        0.45430        0.44215
H          1.15588       -0.58301       -0.43324
H          2.29700        0.89571       -2.05137
H          2.71487       -0.79264       -2.35166
H          4.84966       -0.52203       -1.03789
H          4.51649        1.18090       -0.79762
H          5.87468       -1.33804       -3.04594
H          6.84290       -0.87139       -5.12131
H          6.75408        1.17107       -6.25576
H          4.02759        3.76974       -3.38595
H          3.79266        2.78255       -1.97787
H          6.08183        3.41477       -6.37213
H          6.17626        4.19494       -4.79749
H          2.17044        4.97884       -5.89826
