67

C          0.67796       -0.06472       -0.44357
C          2.19291        0.11313       -0.31370
C          2.85234        0.64651       -1.59059
C          4.37157        0.80973       -1.48065
C          5.02467        1.33649       -2.76255
C          6.54873        1.46495       -2.67271
C          7.19556        1.97291       -3.96532
C          8.72457        2.05337       -3.90098
C          9.36470        2.53044       -5.20881
C         10.89623        2.56482       -5.16776
C         11.52785        3.01981       -6.48837
C         13.06035        3.00924       -6.46346
C         13.68002        3.46375       -7.78871
C         15.22791        3.43843       -7.75348
C         15.81176        3.90088       -9.05052
C         15.93752        3.04937      -10.17513
C         16.45273        3.53837      -11.36291
C         16.60560        2.70054      -12.59787
C         15.90494        3.32747      -13.81282
O         15.65651        4.51313      -13.91643
O         15.64562        2.39025      -14.72837
C         15.03664        2.86003      -15.96714
C         16.81957        4.89964      -11.37490
N         16.65250        5.63082      -10.27114
N         16.16522        5.18821       -9.11319
C         17.00961        7.09178      -10.21133
C         17.54125        7.61291      -11.45006
C         17.98219        8.08707      -12.47002
H          0.23427       -0.44391        0.48743
H          0.42714       -0.77647       -1.24432
H          0.18255        0.88798       -0.68342
H          2.65546       -0.85119       -0.04274
H          2.41439        0.79823        0.52228
H          2.39781        1.61736       -1.85648
H          2.61976       -0.03303       -2.42979
H          4.82351       -0.16229       -1.21504
H          4.60754        1.48973       -0.64318
H          4.58877        2.31835       -3.01796
H          4.76720        0.66652       -3.60199
H          6.98093        0.48286       -2.41161
H          6.81216        2.14057       -1.84014
H          6.78608        2.96804       -4.21318
H          6.90352        1.31144       -4.80020
H          9.12931        1.05978       -3.63948
H          9.02353        2.72652       -3.07850
H          8.98198        3.53546       -5.45896
H          9.03976        1.87065       -6.03260
H         11.27584        1.56080       -4.90952
H         11.22840        3.23230       -4.35378
H         11.17203        4.03548       -6.73396
H         11.17206        2.36762       -7.30517
H         13.41734        1.99336       -6.22162
H         13.42197        3.66149       -5.65038
H         13.34819        4.48719       -8.02904
H         13.32067        2.81944       -8.60958
H         15.57671        2.41589       -7.54193
H         15.59335        4.09309       -6.95075
H         15.62416        2.00734      -10.09036
H         16.23759        1.68064      -12.43512
H         17.67285        2.61009      -12.86411
H         14.89732        1.96044      -16.57125
H         15.70617        3.56932      -16.46767
H         14.07621        3.34284      -15.75292
H         17.23015        5.41626      -12.23972
H         17.72642        7.19038       -9.38270
H         16.08610        7.61066       -9.91424
H         18.37332        8.51944      -13.36920
