64

C          4.65586        0.33808       -9.18568
C          4.97538       -0.09821       -7.75453
C          6.30908        0.46692       -7.25188
C          6.65421        0.11580       -5.80378
S          6.88734       -1.70435       -5.66387
C          7.42227       -1.79116       -4.02602
N          7.60474       -0.85175       -3.13161
N          8.04370       -1.50240       -1.97470
C          8.08680       -2.76746       -2.25374
O          7.71457       -3.05663       -3.53307
C          8.52942       -3.85845       -1.33712
C          7.57439       -5.03718       -1.09709
C          8.02008       -5.59717        0.27457
C          8.76795       -4.44556        1.02872
N          8.65633       -3.28110        0.03729
C          8.07226       -4.03520        2.35271
C          6.68969       -3.38626        2.19393
O          6.39487       -2.83480        1.09899
N          5.81827       -3.36336        3.21971
C          4.51751       -2.68161        3.00168
C          4.59639       -1.15460        3.00922
C          6.05035       -3.94757        4.55028
C          6.25130       -2.90672        5.65336
Si        10.64439       -4.87465        1.40048
C         11.48178       -3.29829        2.01074
C         10.65420       -6.21741        2.71567
C         11.50651       -5.47368       -0.16454
H          3.69573       -0.07396       -9.52282
H          5.42959       -0.00262       -9.88918
H          4.59521        1.43332       -9.26394
H          4.99299       -1.19980       -7.70408
H          4.16828        0.22378       -7.07591
H          6.28283        1.56778       -7.30820
H          7.12892        0.14865       -7.91679
H          5.85397        0.40342       -5.10892
H          7.58924        0.58836       -5.47946
H          9.51742       -4.23597       -1.64644
H          7.64172       -5.77527       -1.90406
H          6.54125       -4.66791       -1.05413
H          8.68121       -6.46401        0.13897
H          7.15419       -5.94991        0.84959
H          9.40346       -2.58162        0.10669
H          7.69256       -2.83379        0.30779
H          8.70004       -3.32747        2.92101
H          8.01307       -4.93996        2.96972
H          3.84646       -3.04264        3.79239
H          4.12113       -3.02884        2.03826
H          4.97577       -0.76836        3.96346
H          3.58982       -0.74290        2.85537
H          5.23704       -0.79007        2.19818
H          6.91862       -4.61357        4.50434
H          5.17983       -4.58068        4.78330
H          7.10798       -2.25366        5.43882
H          6.43990       -3.41765        6.60673
H          5.36284       -2.27680        5.78543
H         11.04464       -2.90891        2.94070
H         11.47745       -2.48619        1.26747
H         12.53965       -3.51424        2.22181
H         10.23794       -5.87294        3.67228
H         11.69061       -6.53108        2.90778
H         10.09776       -7.11151        2.40123
H         11.62757       -4.68198       -0.91749
H         11.00648       -6.32983       -0.63734
H         12.52064       -5.80442        0.10529
