87

C         12.92322        1.33620        9.34907
C         12.38618        1.18036        7.92450
C         12.89632        2.26014        6.96507
C         12.37461        2.10903        5.53275
C         12.88374        3.19484        4.58015
C         12.38857        3.03824        3.13882
C         12.91470        4.12563        2.19747
C         12.45478        3.97103        0.74429
C         13.01048        5.05862       -0.17980
C         12.59490        4.90944       -1.64664
C         13.16515        6.01163       -2.54509
C         12.76936        5.87613       -4.02043
C         13.24324        7.03368       -4.91118
C         14.76318        7.09947       -5.11883
C         15.18198        8.35930       -5.88616
C         16.66406        8.43808       -6.27342
C         17.55351        8.35471       -5.03366
N         19.00916        8.64677       -5.36474
C         19.22068        9.91692       -6.16372
C         18.33235        9.78812       -7.41356
N         16.94996        9.71480       -6.94060
C         18.51379       10.83866       -8.51492
C         19.95174       11.14170       -8.99625
C         20.97565        9.98892       -9.10016
C         20.50913        8.70247       -9.81655
S         21.06728        7.25510       -8.89669
O         22.50376        7.14192       -8.96230
O         20.39779        7.25175       -7.60163
O         20.39257        6.04777       -9.72918
C         19.01038       11.08297       -5.18662
O         18.97404       10.89368       -3.98241
O         18.95864       12.25339       -5.80945
C         18.82599       13.45400       -4.95352
C         20.18017       13.94443       -4.48460
H         12.54047        0.54958       10.01377
H         12.63353        2.30635        9.77972
H         14.02212        1.28225        9.36756
H         11.28344        1.20241        7.94070
H         12.66326        0.18737        7.53188
H         14.00077        2.24352        6.95386
H         12.61368        3.25446        7.35403
H         11.27053        2.11994        5.54291
H         12.66391        1.11714        5.14301
H         13.98825        3.19323        4.58540
H         12.58172        4.18560        4.96320
H         11.28464        3.04522        3.12707
H         12.68946        2.04723        2.75586
H         14.01890        4.12655        2.22825
H         12.60190        5.11536        2.57447
H         11.35173        3.98356        0.70402
H         12.76099        2.97933        0.36774
H         14.11339        5.05740       -0.11469
H         12.68784        6.04801        0.18982
H         11.49368        4.91292       -1.72019
H         12.92108        3.92377       -2.02198
H         14.26460        6.01349       -2.44305
H         12.82374        6.99361       -2.17137
H         11.67121        5.81482       -4.08739
H         13.14892        4.91998       -4.42127
H         12.89899        7.98653       -4.47222
H         12.75772        6.95957       -5.89825
H         15.09521        6.19699       -5.66131
H         15.26289        7.07635       -4.13699
H         14.93142        9.25719       -5.29780
H         14.59597        8.42754       -6.81851
H         16.90873        7.57468       -6.93259
H         17.53449        7.35620       -4.58166
H         17.25887        9.10329       -4.28888
H         19.43322        7.87822       -5.91683
H         19.51311        8.75707       -4.47176
H         20.28307        9.91256       -6.44608
H         18.63762        8.81467       -7.84891
H         16.29164        9.87263       -7.70474
H         18.05130       11.78358       -8.19781
H         17.91304       10.47555       -9.36567
H         20.40015       11.89508       -8.33105
H         19.86349       11.63424       -9.97581
H         21.33085        9.72280       -8.09398
H         21.86926       10.36900       -9.61228
H         20.92488        8.59695      -10.82682
H         19.41750        8.60452       -9.88382
H         21.09906        5.58951      -10.22721
H         18.16539       13.19684       -4.11699
H         18.32805       14.17440       -5.61210
H         20.66560       13.21472       -3.82494
H         20.04202       14.87285       -3.91382
H         20.84105       14.16508       -5.33261
