83

C         12.08158       -9.96580        6.67779
C         11.14060       -9.93002        5.47165
C         11.39759       -8.74028        4.54144
C         10.47597       -8.70515        3.31863
C         10.72477       -7.50598        2.39907
C          9.84248       -7.49681        1.14676
C         10.08632       -6.28631        0.24099
C          9.25392       -6.31119       -1.04537
C          9.48462       -5.10740       -1.95093
O         10.87250       -5.02879       -2.35376
C         11.10287       -5.15221       -3.73555
C         12.60208       -5.22654       -3.99193
C         13.41714       -5.28985       -2.86764
C         14.83312       -5.41467       -2.88446
C         15.43219       -5.45905       -4.12810
C         14.65467       -5.38538       -5.31462
C         13.20532       -5.26267       -5.29370
C         12.53229       -5.21443       -6.57222
C         11.04885       -5.02506       -6.79998
C         10.60537       -3.54049       -6.87337
C         11.04953       -2.80874       -8.14371
C         10.47475       -1.39151       -8.25357
C         10.90202       -0.67365       -9.53522
C         13.28793       -5.31933       -7.72475
N         14.64828       -5.43572       -7.68503
C         15.33118       -5.46247       -6.53791
C         15.59551       -5.53887       -1.56214
C         15.28681       -6.97574       -0.97219
C         15.72586       -8.12972       -1.88719
C         15.84740       -7.19105        0.44237
C         17.11474       -5.35065       -1.77475
O         17.49319       -4.02970       -2.16140
C         15.10085       -4.44508       -0.58490
H         11.87101      -10.82610        7.32775
H         11.98211       -9.05558        7.28778
H         13.13284      -10.03776        6.36047
H         10.09446       -9.89691        5.81980
H         11.23912      -10.86706        4.89771
H         12.44954       -8.76464        4.20407
H         11.28537       -7.80164        5.11239
H          9.42431       -8.69360        3.65422
H         10.59936       -9.63944        2.74290
H         11.78682       -7.49721        2.09326
H         10.56622       -6.57208        2.96611
H          8.78038       -7.52202        1.44605
H         10.01693       -8.42404        0.57283
H         11.15671       -6.24005       -0.02098
H          9.86732       -5.35910        0.79880
H          8.17958       -6.33711       -0.79532
H          9.46238       -7.23611       -1.60978
H          9.25664       -4.16940       -1.41851
H          8.83646       -5.15458       -2.84148
H         10.66187       -4.29567       -4.27812
H         10.62427       -6.07384       -4.12597
H         12.90688       -5.25239       -1.90782
H         16.51093       -5.58391       -4.23859
H         10.47040       -5.55364       -6.03699
H         10.78806       -5.50496       -7.75570
H         10.96491       -2.99252       -5.98709
H          9.50537       -3.52804       -6.81872
H         10.73481       -3.39222       -9.02766
H         12.15142       -2.74932       -8.18721
H         10.78692       -0.80286       -7.37499
H          9.37458       -1.44645       -8.20900
H         11.99610       -0.57182       -9.59183
H         10.47318        0.33535       -9.58901
H         10.57135       -1.22271      -10.42921
H         12.84370       -5.31460       -8.71714
H         15.15657       -5.50735       -8.56559
H         16.41442       -5.55654       -6.60294
H         14.18573       -7.01950       -0.89130
H         16.82072       -8.20572       -1.95532
H         15.32731       -8.03812       -2.90703
H         15.36408       -9.08343       -1.47938
H         16.94656       -7.18624        0.45767
H         15.52701       -8.17540        0.81081
H         15.49030       -6.44255        1.15999
H         17.51194       -6.09845       -2.48493
H         17.62820       -5.52151       -0.81997
H         17.01425       -3.78524       -2.96899
H         14.08062       -4.64092       -0.22938
H         15.12373       -3.45355       -1.05299
H         15.75660       -4.40070        0.29309
