49

C          1.85499       -1.66964        0.62586
C          2.76315       -0.58685        0.08500
O          3.31412        0.13671        1.21360
C          4.19625        1.16508        0.82433
C          4.72088        1.80233        2.07054
N          4.79085        3.10876        2.31704
N          5.31124        3.40516        3.53470
C          5.56267        2.22836        4.06413
N          5.20250        1.20962        3.19029
C          5.41292       -0.22585        3.37960
C          6.56523       -0.72451        2.48904
O          7.04599       -0.05947        1.59398
O          6.88227       -1.96723        2.83947
C          7.93551       -2.63742        2.04944
C          9.31982       -2.34114        2.60532
C         10.39435       -3.13688        1.85565
C          6.14496        2.01379        5.42813
O          6.30211        3.28047        6.01828
C          6.66780        3.23340        7.37935
O          7.94789        2.66032        7.49056
C          8.54007        2.83139        8.79244
C          9.99015        2.39726        8.68283
O         10.73420        3.21531        7.78914
H          1.41531       -2.23467       -0.20621
H          1.03579       -1.23841        1.21568
H          2.41167       -2.37500        1.25712
H          2.20799        0.12255       -0.55466
H          3.59294       -1.00873       -0.51025
H          3.69207        1.94449        0.21862
H          5.05395        0.78301        0.23641
H          4.50031        3.86505        1.70087
H          4.49217       -0.75592        3.10327
H          5.62407       -0.42155        4.43616
H          7.83391       -2.31442        1.00478
H          7.67754       -3.69989        2.13609
H          9.33677       -2.59606        3.67608
H          9.52303       -1.26288        2.52091
H         10.23209       -4.22025        1.94708
H         11.38941       -2.91505        2.26055
H         10.40877       -2.88690        0.78518
H          7.10968        1.47694        5.33955
H          5.46212        1.36978        6.02266
H          5.92366        2.64254        7.95815
H          6.66201        4.28317        7.71815
H          8.00586        2.22191        9.54479
H          8.48205        3.89554        9.08511
H         10.03331        1.33202        8.38605
H         10.46932        2.49078        9.66769
H         10.26371        3.21646        6.93971
