65

C         -6.89639        9.54506       -5.27620
C         -7.46731        8.13227       -5.40211
N         -6.57141        7.22015       -6.14405
C         -5.65346        6.47768       -5.50076
S         -5.37957        6.57493       -3.83343
S         -4.76706        5.33224       -6.54957
C         -3.21672        4.94899       -5.65158
C         -2.82599        3.46000       -5.76117
C         -3.08939        2.55278       -4.54000
C         -4.54497        2.19539       -4.18370
C         -5.30006        1.64719       -5.41280
N         -5.26895        3.37103       -3.65189
C         -6.13463        3.01514       -2.71141
N         -7.01131        3.86606       -2.15908
N         -6.04091        1.70285       -2.43330
C         -4.77717        1.16378       -2.98656
C         -3.73050        0.88006       -1.84061
C         -3.39133        2.17047       -1.04073
C         -2.69826        2.07045        0.33735
C         -1.26469        1.52132        0.29574
C         -2.70681        3.46474        0.98490
C         -4.34455       -0.20394       -0.91987
O         -5.52508        0.27510       -0.23793
C         -2.49100        0.19255       -2.46473
C         -6.76250        7.20708       -7.60758
C         -7.85323        6.23700       -8.06729
H         -7.61639       10.18519       -4.74933
H         -6.70438        9.99635       -6.25905
H         -5.96007        9.53882       -4.70461
H         -8.42448        8.14252       -5.94231
H         -7.63670        7.69538       -4.41064
H         -3.34672        5.29615       -4.61497
H         -2.44849        5.57853       -6.11683
H         -1.73835        3.43270       -5.92118
H         -3.25380        3.01860       -6.67364
H         -2.60052        3.00122       -3.66412
H         -2.56742        1.60846       -4.74193
H         -5.40990        2.42165       -6.18122
H         -6.30577        1.30709       -5.13281
H         -4.75795        0.79591       -5.84779
H         -5.17088        4.36471       -3.92775
H         -6.96715        4.84646       -2.43211
H         -7.53369        3.61070       -1.33170
H         -6.35802        1.30407       -1.54335
H         -4.98752        0.18677       -3.44790
H         -4.32743        2.72213       -0.86776
H         -2.77597        2.82511       -1.67852
H         -3.30495        1.41226        0.98222
H         -0.64212        2.08791       -0.41419
H         -1.21659        0.46325        0.00959
H         -0.79446        1.60691        1.28482
H         -2.11799        4.18187        0.39164
H         -2.27038        3.43394        1.99225
H         -3.72789        3.86295        1.07447
H         -3.58699       -0.50022       -0.17827
H         -4.59408       -1.09520       -1.52347
H         -5.83544       -0.41835        0.36429
H         -1.74285        0.91845       -2.79797
H         -2.77143       -0.43432       -3.32409
H         -1.99572       -0.46507       -1.74026
H         -5.79937        6.96663       -8.07667
H         -7.01592        8.23604       -7.89933
H         -7.60366        5.19986       -7.80757
H         -7.96264        6.29795       -9.15802
H         -8.82638        6.48029       -7.61978
