89

C          0.70246        0.10872       -0.59400
C          2.20908        0.20477       -0.34229
C          2.56165        0.47961        1.12411
C          4.06801        0.59973        1.37497
C          4.42605        0.85051        2.84424
C          5.93855        0.98708        3.06437
C          6.28695        1.19448        4.53911
S          8.11006        1.36751        4.66025
C          8.33445        1.23409        6.36566
N          7.47456        1.10420        7.34884
N          8.23338        0.99779        8.51096
C          9.47751        1.09445        8.16064
O          9.64188        1.22910        6.80618
C         10.69984        0.92507        9.04018
C         10.43197       -0.26271       10.00274
C         10.27779       -1.55169        9.20472
N         11.36618       -1.68467        8.22447
C         12.08591       -0.65468        7.75710
N         13.03560       -0.85355        6.83727
C         13.75106        0.17378        6.10013
C         14.43092       -0.55341        4.92942
O         14.32775       -1.75939        4.78403
O         15.09679        0.29316        4.16127
C         15.79124       -0.28566        2.99004
C         16.47960        0.84076        2.24848
C         17.22404        0.31753        1.01145
C         17.93921        1.42457        0.22750
C         18.68195        0.89758       -1.00263
N         11.87248        0.58778        8.23333
C         11.02554        2.20261        9.92486
C         11.79121        3.46938        9.33509
C         11.28249        4.28718        8.08500
C          9.86297        4.97876        8.04970
C          9.44837        6.07720        9.11257
C         10.26818        7.41749        9.29868
C         10.47019        8.43595        8.10513
C          9.20017        9.03774        7.39518
F          8.31855        9.50176        8.29442
F          9.59809       10.04954        6.60755
F          8.59777        8.11050        6.62674
F         11.16005        9.47442        8.63852
F         11.24184        7.84894        7.15272
F          9.63935        8.07879       10.30073
F         11.51598        7.08428        9.72545
F          8.17119        6.41275        8.80147
F          9.44503        5.47154       10.32877
F          9.75216        5.51078        6.80947
F          8.93487        3.98887        8.16903
F         12.22401        5.22313        7.83891
F         11.28908        3.40693        7.02979
F         11.96739        4.31991       10.36155
F         13.03734        3.01563        8.94554
F          9.87138        2.62428       10.48658
F         11.86332        1.80486       10.93324
H          0.48442       -0.09383       -1.65137
H          0.19156        1.04471       -0.32357
H          0.24796       -0.69879       -0.00094
H          2.63902        1.00077       -0.97386
H          2.69793       -0.73115       -0.66258
H          2.14716       -0.32594        1.75574
H          2.06138        1.40780        1.45208
H          4.47691        1.41718        0.75561
H          4.57092       -0.32110        1.03075
H          4.03781        0.02427        3.46416
H          3.91885        1.76410        3.19806
H          6.32034        1.83226        2.46743
H          6.44847        0.08352        2.69158
H          5.98869        0.33940        5.15975
H          5.83047        2.10434        4.95059
H          9.50727       -0.07133       10.55938
H         11.26617       -0.34461       10.70791
H          9.30888       -1.58338        8.68393
H         10.32646       -2.41186        9.88504
H         11.50776       -2.59007        7.78867
H         13.20376       -1.78638        6.43999
H         14.52219        0.67271        6.70957
H         13.07331        0.94309        5.69462
H         15.03486       -0.79506        2.37623
H         16.49898       -1.03893        3.36428
H         17.18608        1.34614        2.92603
H         15.73156        1.59128        1.94716
H         16.51310       -0.19901        0.34339
H         17.96131       -0.44440        1.31857
H         18.64804        1.94202        0.89552
H         17.20197        2.18464       -0.08125
H         19.45142        0.16310       -0.72237
H         19.18273        1.71116       -1.54411
H         17.99409        0.40578       -1.70648
H         12.41044        1.34414        7.82337
