75

C          0.82150        0.64811       -0.35521
C          2.32276        0.72141       -0.64609
C          2.89236       -0.57466       -1.23446
C          4.39580       -0.51157       -1.52227
C          4.97295       -1.81628       -2.08164
C          6.47795       -1.74895       -2.36099
C          7.06819       -3.05806       -2.89571
C          8.57662       -2.98515       -3.15480
C          9.17878       -4.29361       -3.67784
C         10.69123       -4.21638       -3.91208
C         11.30129       -5.52211       -4.43254
C         12.81444       -5.43509       -4.66498
C         13.42046       -6.74688       -5.18088
C         14.89807       -6.65834       -5.60576
C         15.82297       -6.37916       -4.42556
N         17.24920       -6.07261       -4.86698
C         18.06933       -5.45368       -3.79559
C         18.29865       -6.04784       -2.56114
C         19.05357       -5.35707       -1.60980
C         19.55944       -4.08971       -1.90545
C         19.32212       -3.48740       -3.14384
C         18.56692       -4.17152       -4.10097
O         18.24193       -3.71098       -5.34790
C         18.63328       -2.37502       -5.71902
C         17.94212       -7.17267       -5.67884
C         17.87845       -8.59137       -5.10722
C         18.27851       -9.59627       -6.19857
O         17.37005       -9.43302       -7.28500
O         18.64495       -8.77794       -3.92557
H          0.44577        1.59007        0.06789
H          0.59240       -0.15269        0.36379
H          0.24635        0.44250       -1.27033
H          2.86652        0.96648        0.28232
H          2.52382        1.55445       -1.34117
H          2.35090       -0.82079       -2.16515
H          2.68880       -1.40840       -0.53924
H          4.93246       -0.24633       -0.59396
H          4.59796        0.31074       -2.23132
H          4.43952       -2.08411       -3.01080
H          4.77061       -2.63730       -1.37126
H          7.00665       -1.46447       -1.43379
H          6.67894       -0.93697       -3.08231
H          6.54946       -3.34004       -3.82876
H          6.86064       -3.87147       -2.17830
H          9.09129       -2.69580       -2.22144
H          8.78389       -2.17463       -3.87580
H          8.67679       -4.57773       -4.61913
H          8.96189       -5.10681       -2.96320
H         11.19043       -3.93119       -2.96887
H         10.90828       -3.40240       -4.62646
H         10.80636       -5.80862       -5.37652
H         11.08732       -6.33713       -3.71950
H         13.29720       -5.12890       -3.72029
H         13.02403       -4.62845       -5.39053
H         12.84841       -7.08638       -6.05799
H         13.30161       -7.54062       -4.42369
H         15.00675       -5.84948       -6.35086
H         15.18627       -7.59322       -6.10920
H         15.86495       -7.21564       -3.71689
H         15.51019       -5.48676       -3.86935
H         17.16292       -5.29248       -5.54480
H         17.91964       -7.04538       -2.34818
H         19.24386       -5.81330       -0.63961
H         20.14842       -3.55367       -1.16118
H         19.71986       -2.49650       -3.35500
H         18.23557       -2.22397       -6.72665
H         19.72812       -2.28166       -5.73607
H         18.19654       -1.63698       -5.03145
H         18.98218       -6.83833       -5.79518
H         17.46308       -7.17401       -6.66632
H         16.84372       -8.83002       -4.81812
H         18.22539      -10.60366       -5.75513
H         19.32577       -9.41226       -6.51423
H         17.50494      -10.14872       -7.92457
H         19.59190       -8.72178       -4.13939
