48

O          4.95678       -6.28170       -2.88411
C          3.73092       -6.50099       -2.16488
C          3.26339       -5.18144       -1.59498
O          4.22788       -4.73131       -0.63415
C          4.21664       -3.35108       -0.33384
O          5.53537       -2.84319       -0.34840
C          6.15062       -2.79949       -1.63414
C          7.55304       -3.44256       -1.56305
C          8.30026       -3.36783       -2.91586
C          8.26045       -2.03173       -3.64930
O          8.69671       -1.00433       -2.75838
C          8.70420        0.27649       -3.36565
C          8.92858        1.32779       -2.28401
F         10.09507        1.14029       -1.62573
F          8.95851        2.55645       -2.85235
F          7.92928        1.31723       -1.36562
C          7.48336       -4.92291       -1.09345
S          7.89384       -4.97076        0.69030
C          8.47038       -3.36296        0.64315
N          8.31926       -2.74620       -0.49874
C          9.11280       -2.73902        1.84397
C          9.16111       -1.21145        1.82324
O          9.09315       -0.53433        0.81231
O          9.32480       -0.74292        3.05910
C          9.45326        0.70551        3.18354
H          5.15940       -7.08907       -3.38075
H          3.88305       -7.22654       -1.34664
H          2.94220       -6.88892       -2.83108
H          2.27633       -5.32285       -1.12024
H          3.15614       -4.43616       -2.40373
H          3.86576       -3.18253        0.69515
H          3.57174       -2.80897       -1.05264
H          6.23714       -1.74627       -1.94554
H          5.56969       -3.35630       -2.38585
H          7.86240       -4.12745       -3.58110
H          9.34559       -3.66232       -2.73920
H          7.24354       -1.80032       -4.01795
H          8.92309       -2.08631       -4.53194
H          7.73891        0.50069       -3.85309
H          9.51184        0.36930       -4.11263
H          8.22321       -5.54669       -1.61043
H          6.48091       -5.34446       -1.23872
H          8.59202       -1.74772       -0.56407
H         10.15559       -3.09830        1.90277
H          8.62537       -3.09671        2.76091
H          9.58508        0.88402        4.25345
H          8.54578        1.19365        2.81075
H         10.32419        1.05252        2.61567
