62

C          3.14223        1.16343       -0.96334
C          3.50662        1.14579        0.32385
C          4.19057        2.31220        0.93276
O          4.49048        3.34764        0.36833
O          4.44749        2.07353        2.25982
C          5.06055        3.16887        2.98179
C          6.57994        3.19051        2.82337
C          7.27156        1.93344        3.36373
C          8.78659        1.88690        3.11455
C          9.56182        3.00079        3.84082
C         11.06872        2.84002        3.63193
S         12.00341        4.26204        4.30444
C         11.93888        3.98867        6.13654
C         12.74829        5.02595        6.86083
C         12.27527        6.34381        6.98108
C         13.02571        7.29699        7.67002
C         14.25018        6.94288        8.24729
C         14.72406        5.63293        8.13585
C         13.97900        4.67739        7.44023
C         13.74495        3.84721        3.92438
C         14.10459        4.08850        2.45372
C         13.98535        5.53380        1.95051
C         14.96942        6.51825        2.60972
N         14.89298        7.84732        2.03594
C         13.99017        8.82681        2.40376
C         14.14563        9.89859        1.54489
C         15.17094        9.55611        0.61877
C         15.61018        8.28577        0.93928
H          2.62978        0.31813       -1.42124
H          3.34865        2.03742       -1.58341
H          3.30818        0.29231        0.97350
H          4.77129        3.00165        4.02866
H          4.62952        4.11442        2.62663
H          6.93645        4.09247        3.34896
H          6.81900        3.33209        1.75763
H          6.82207        1.04738        2.89160
H          7.07475        1.83468        4.44546
H          8.98366        1.95822        2.03156
H          9.17388        0.90757        3.43985
H          9.32101        2.96550        4.91545
H          9.24338        3.98641        3.46852
H         11.32047        2.83583        2.56053
H         11.47302        1.92574        4.09150
H         12.28859        2.96381        6.32151
H         10.86630        4.05651        6.36529
H         11.31241        6.62250        6.54698
H         12.64969        8.31581        7.76562
H         14.83033        7.68779        8.79253
H         15.67071        5.35100        8.59719
H         14.34337        3.64980        7.37215
H         13.89964        2.80081        4.22430
H         14.31403        4.49450        4.60776
H         13.51006        3.42094        1.81161
H         15.14597        3.74205        2.34548
H         12.95801        5.91205        2.07784
H         14.17291        5.53416        0.86720
H         16.00070        6.15035        2.49131
H         14.78271        6.60741        3.69188
H         13.33039        8.68351        3.25414
H         13.59519       10.83286        1.58902
H         15.55860       10.17716       -0.18226
H         16.38216        7.66460        0.49575
