61

C          5.16795       -0.54433        1.88496
C          5.67967        0.11577        0.60209
C          4.90320        1.38614        0.23864
C          5.43044        2.04319       -1.04376
N          4.70122        3.26717       -1.41378
C          3.64356        3.28730       -2.24860
S          2.81753        4.67741       -2.68625
S          3.20976        1.63962       -2.86636
C          1.98633        2.01095       -4.15320
C          0.52701        1.72586       -3.76994
C          0.09849        2.49333       -2.51183
S         -1.70229        2.68603       -2.42713
C         -2.30730        1.03272       -1.96132
C         -3.83648        1.08326       -1.95916
O         -4.44922        2.12296       -1.79531
O         -4.34246       -0.13032       -2.14935
C         -5.81794       -0.25255       -2.12394
C         -6.31181       -0.53175       -0.71941
C         -1.88206        3.66345       -0.75813
O         -1.36182        4.91003       -0.88096
C         -2.23095        5.89137       -1.49510
C          5.22196        4.51973       -0.83429
C          6.28778        5.17345       -1.72183
C          6.80342        6.49202       -1.13617
C          7.86949        7.15055       -2.01573
H          5.73701       -1.45333        2.12034
H          4.10958       -0.83046        1.79302
H          5.25490        0.13415        2.74609
H          5.61750       -0.60085       -0.23400
H          6.74931        0.35948        0.71342
H          4.96098        2.10848        1.06957
H          3.83548        1.14556        0.10790
H          5.39421        1.33779       -1.88680
H          6.48693        2.32437       -0.92182
H          2.26812        1.39687       -5.01867
H          2.12514        3.07595       -4.40038
H          0.37505        0.64541       -3.62552
H         -0.09989        2.02588       -4.62642
H          0.48213        3.53157       -2.53655
H          0.46078        2.02671       -1.58511
H         -1.92381        0.75943       -0.96646
H         -1.92075        0.31486       -2.69541
H         -6.00876       -1.08723       -2.80764
H         -6.23738        0.67248       -2.53842
H         -5.85009       -1.43764       -0.30664
H         -7.39874       -0.68956       -0.74993
H         -6.11585        0.31398       -0.04790
H         -1.29150        3.08213       -0.03685
H         -2.96719        3.60574       -0.57943
H         -1.71284        6.84925       -1.39613
H         -3.19837        5.92469       -0.97360
H         -2.38500        5.66226       -2.56017
H          5.63590        4.27004        0.15432
H          4.37279        5.20049       -0.69083
H          5.85264        5.35358       -2.71730
H          7.12987        4.47545       -1.86502
H          7.21411        6.31331       -0.12796
H          5.95496        7.18346       -1.00236
H          8.74506        6.49681       -2.14120
H          8.22035        8.09418       -1.57756
H          7.47654        7.37495       -3.01810
