61

C          2.04097        2.78068       -5.74282
C          2.72545        3.10291       -4.41148
C          3.93762        2.22097       -4.15594
O          4.52220        2.60672       -2.89991
C          5.57717        1.78334       -2.45083
C          6.92915        2.08896       -3.12779
C          8.07441        1.23282       -2.53824
N          9.07969        2.22000       -2.00230
C          8.94199        3.42529       -2.89492
C          7.42080        3.57904       -3.04281
C          6.75534        4.50084       -1.99643
C          6.96625        4.22172       -0.52074
O          7.73709        3.37018       -0.05252
O          6.23083        5.02328        0.22578
C          6.39104        4.97911        1.69494
C          7.40921        6.01245        2.15001
C          7.45527        6.12073        3.68184
C          8.55625        7.06502        4.16875
C         10.46596        1.67369       -1.81369
C         11.33028        2.52183       -0.87852
C         10.90971        2.41960        0.59695
C         11.72162        3.36983        1.48193
S         11.12026        3.24545        3.18825
O          9.74224        3.68542        3.22584
O         11.51727        1.97605        3.74707
Cl        12.26342        4.72499        4.09320
H          1.17088        3.43048       -5.89846
H          1.68551        1.74073       -5.77391
H          2.72009        2.92831       -6.59530
H          2.01948        2.97759       -3.57655
H          3.04740        4.15627       -4.39528
H          4.67232        2.33339       -4.97756
H          3.64826        1.15366       -4.10932
H          5.33509        0.71407       -2.60537
H          5.65204        1.93999       -1.36237
H          6.83642        1.83897       -4.19359
H          8.57237        0.61414       -3.29550
H          7.75918        0.58690       -1.70732
H          8.66134        2.56803       -1.07861
H          9.42772        3.19339       -3.85324
H          9.44379        4.28480       -2.43486
H          7.21640        4.06060       -4.00766
H          5.67150        4.52900       -2.17923
H          7.10470        5.53328       -2.16156
H          6.67855        3.96127        1.98568
H          5.38282        5.20300        2.06428
H          7.15515        6.99038        1.71074
H          8.40563        5.72912        1.77447
H          7.61667        5.12090        4.11323
H          6.47598        6.46748        4.05082
H          9.54965        6.70545        3.86377
H          8.55426        7.14025        5.26399
H          8.42465        8.08028        3.76631
H         10.91656        1.59038       -2.81319
H         10.35153        0.65729       -1.41049
H         11.33355        3.57259       -1.21121
H         12.36697        2.17180       -0.99690
H         11.04582        1.38438        0.94564
H          9.84498        2.66580        0.71917
H         11.59266        4.42312        1.19807
H         12.79200        3.12601        1.51707
