57

C          0.93194        0.77817        0.08550
C          2.45344        0.61602        0.04306
C          2.98722        0.25068       -1.34658
C          4.50794        0.07425       -1.39056
C          5.04999       -0.26974       -2.78160
C          6.57106       -0.44708       -2.80953
C          7.13634       -0.73303       -4.20422
C          8.65803       -0.90889       -4.20442
C          9.25036       -1.15895       -5.59492
C         10.76584       -1.36575       -5.55064
C         11.37561       -1.65880       -6.94533
C         12.85973       -1.84633       -6.83775
C         13.30365       -3.10003       -6.32346
N         14.56322       -3.41615       -6.14016
N         15.43688       -2.45594       -6.42138
C         15.17307       -1.20463       -6.89518
C         13.80431       -0.87478       -7.17131
C         13.40382        0.41246       -7.86186
C         12.81288        1.48993       -6.93943
O         13.73218        1.71699       -5.86010
N         16.28048       -0.42142       -7.10188
N         17.51576       -1.05676       -6.80498
N         16.28577        0.97160       -6.92988
H          0.58295        1.04270        1.09306
H          0.42277       -0.15170       -0.20864
H          0.59499        1.56946       -0.60079
H          2.76240       -0.15909        0.76486
H          2.93421        1.55002        0.38069
H          2.68844        1.03159       -2.06823
H          2.50095       -0.67898       -1.69140
H          4.80427       -0.71562       -0.67796
H          4.99273        0.99961       -1.03195
H          4.76127        0.52432       -3.49252
H          4.56650       -1.19253       -3.14720
H          6.85545       -1.26626       -2.12597
H          7.05017        0.46207       -2.40491
H          6.86074        0.08934       -4.88732
H          6.66303       -1.64101       -4.61644
H          8.92673       -1.74835       -3.53979
H          9.12857       -0.01261       -3.76293
H          9.01094       -0.31075       -6.25971
H          8.77341       -2.04469       -6.04792
H         11.00439       -2.19868       -4.86915
H         11.25826       -0.47882       -5.11820
H         11.11160       -0.85434       -7.64351
H         10.92598       -2.58202       -7.34239
H         12.59011       -3.88836       -6.07981
H         16.43418       -2.66399       -6.28359
H         12.64256        0.17558       -8.61881
H         14.25516        0.82324       -8.41546
H         11.83922        1.16353       -6.54155
H         12.65371        2.41003       -7.52480
H         13.39748        2.42882       -5.29222
H         17.97700       -0.49338       -6.08348
H         18.10108       -1.02817       -7.64436
H         15.46725        1.29706       -6.39547
H         16.34035        1.44407       -7.83387
