47

C          0.88600        0.72313        1.18836
C          2.37736        0.64742        0.84587
C          2.68759        1.31462       -0.48256
O          4.11004        1.21023       -0.72557
C          4.50545        1.85033       -1.91856
C          6.00457        1.80545       -1.98156
N          6.71036        2.92013       -1.79875
N          8.03631        2.71418       -1.75263
C          8.18096        1.41172       -1.91037
N          6.91915        0.79910       -2.08180
C          6.60051       -0.70178       -2.26207
C          7.67754       -1.34093       -3.19560
C          7.49984       -2.86192       -3.34905
C          7.74879       -0.67446       -4.57875
C          6.57471       -1.31312       -0.83177
O          7.84151       -1.35354       -0.18965
C          5.20058       -0.88805       -2.85851
C          9.55199        0.80662       -1.86113
C         10.61007        1.78642       -1.34040
H          0.68798        0.23878        2.15241
H          0.26917        0.21858        0.43116
H          0.54066        1.76394        1.26478
H          2.70500       -0.40295        0.80130
H          2.97477        1.13346        1.63228
H          2.40222        2.38357       -0.46702
H          2.13973        0.83064       -1.31371
H          4.21870        2.92162       -1.91473
H          4.04475        1.40373       -2.81615
H          6.33794        3.85901       -1.67314
H          8.64377       -1.21152       -2.69746
H          6.60285       -3.13057       -3.92307
H          7.45866       -3.39248       -2.38831
H          8.36108       -3.26335       -3.89849
H          6.85414       -0.88580       -5.18105
H          8.60960       -1.06568       -5.13649
H          7.86477        0.41734       -4.52755
H          6.12380       -2.31382       -0.90298
H          5.90440       -0.69603       -0.21433
H          8.18969       -2.25709       -0.21906
H          5.05824       -0.32006       -3.78515
H          4.41074       -0.64311       -2.14052
H          5.08286       -1.94736       -3.11024
H          9.82870        0.46858       -2.87184
H          9.50662       -0.08242       -1.21913
H         10.70616        2.66965       -1.98250
H         11.58019        1.27619       -1.31195
H         10.37489        2.12854       -0.32476
