67

C          0.79988       -1.28252        2.96536
C          2.30283       -1.01698        3.08838
C          3.02979       -2.04990        3.95602
C          4.53930       -1.81215        4.07142
C          5.25031       -2.84452        4.95174
C          6.75908       -2.61404        5.08822
C          7.45276       -3.67127        5.95322
C          8.95169       -3.42687        6.15507
C          9.62300       -4.54381        6.96334
C         11.07638       -4.28966        7.32055
O         11.85921       -4.21027        6.10523
C         13.21522       -3.96350        6.32055
N         13.95058       -5.15741        6.76415
C         14.38134       -6.15832        5.98393
N         14.56034       -7.38380        6.52965
C         13.73836       -7.93603        7.61030
C         14.10321       -7.43222        9.01067
O         14.31797       -6.25164        9.26040
O         14.09166       -8.42330        9.88905
C         14.25609       -8.07629       11.31595
C         12.89956       -7.85478       11.96483
C         13.02622       -7.57049       13.46864
C         11.66533       -7.37513       14.14251
N         14.67295       -5.95499        4.68620
C         15.02153       -6.98097        3.68845
C         14.11164       -8.12078        3.66085
C         13.39162       -9.09062        3.62024
H          0.30315       -0.51840        2.35234
H          0.31233       -1.28515        3.95189
H          0.60404       -2.26019        2.49925
H          2.46673       -0.01040        3.50979
H          2.75836       -1.00046        2.08348
H          2.85045       -3.05973        3.54556
H          2.58320       -2.05366        4.96629
H          4.72056       -0.80024        4.47507
H          4.98881       -1.81917        3.06263
H          5.07174       -3.85503        4.54308
H          4.79198       -2.84235        5.95644
H          6.93805       -1.61280        5.51787
H          7.22197       -2.59992        4.08590
H          7.30330       -4.66601        5.49698
H          6.95779       -3.71654        6.93936
H          9.10023       -2.46223        6.67148
H          9.44875       -3.32998        5.17665
H          9.55228       -5.49922        6.41698
H          9.08125       -4.69261        7.91269
H         11.46179       -5.10632        7.95965
H         11.19200       -3.33923        7.87513
H         13.38551       -3.19787        7.09633
H         13.62290       -3.58590        5.37210
H         14.01952       -5.35973        7.78111
H         14.98595       -8.08460        5.93209
H         13.83461       -9.02592        7.57427
H         12.67531       -7.68884        7.44543
H         14.90129       -7.19091       11.38133
H         14.77656       -8.94743       11.73180
H         12.27299       -8.74642       11.80302
H         12.39376       -7.00834       11.47162
H         13.64927       -6.67404       13.62104
H         13.56227       -8.40290       13.95394
H         11.11810       -6.52831       13.70277
H         11.78118       -7.17405       15.21515
H         11.03525       -8.27042       14.03821
H         14.73168       -4.99133        4.37778
H         16.05943       -7.32779        3.84046
H         15.00745       -6.47692        2.71105
H         12.74386       -9.94169        3.55393
