30

F          4.77777       -2.74495        1.31454
C          4.61005       -1.88331        2.35774
C          3.63864       -0.74189        1.95239
C          2.13473       -1.15377        1.81966
O          1.89086       -2.27497        1.01896
C          2.13866       -2.07662       -0.36283
N          1.37467       -0.91450       -0.81630
C          0.96654        0.05217        0.01752
N          0.18514        1.05393       -0.42354
C         -0.27138        1.21594       -1.77229
C         -1.64238        1.28447       -2.02818
C         -2.04767        1.48147       -3.35209
N         -1.19697        1.58676       -4.38227
C          0.11363        1.52092       -4.11543
C          0.63692        1.35038       -2.82851
N          1.35396        0.00029        1.31848
Br         0.56317        1.14149        2.57719
F          3.70776        0.21796        2.92376
F          4.08770       -0.17966        0.78532
F          4.06288       -2.56012        3.40691
H          5.58762       -1.46864        2.65248
H          1.77120       -1.40762        2.82410
H          1.76066       -2.97175       -0.87097
H          3.21006       -1.94501       -0.57378
H          1.05696       -0.85775       -1.78273
H         -0.20400        1.66551        0.29398
H         -2.37479        1.18620       -1.22608
H         -3.11136        1.55022       -3.59299
H          0.78786        1.62793       -4.96893
H          1.71452        1.36582       -2.65905
