64

F          1.60804        0.15802       -0.57437
C          2.98735        0.14928       -0.34931
C          3.28352       -0.63052        0.92578
C          4.78749       -0.68303        1.21556
C          5.20047       -1.51796        2.43095
C          4.64539       -1.06052        3.80281
N          4.40683       -2.33876        4.49217
C          4.36917       -3.34881        3.60503
N          4.04675       -4.62400        3.89883
C          3.87588       -5.01600        5.22964
N          4.41993       -6.04713        5.79601
N          3.86768       -6.11780        7.07166
C          3.06458       -5.09545        7.20491
O          3.01217       -4.32723        6.03111
S          2.22738       -4.60081        8.63047
C          0.51101       -4.36245        7.99475
C         -0.42406       -4.21810        9.19614
C         -1.88645       -4.03601        8.76240
C         -2.84279       -3.92157        9.95222
C          3.94059       -5.64936        2.81932
C          2.94878       -6.77297        3.15633
O          1.77053       -6.10931        3.61801
C          0.95376       -6.86007        4.54540
C          0.14997       -7.97097        3.91552
C         -0.80536       -7.68325        2.92854
C         -1.53084       -8.71237        2.32885
C         -1.31456      -10.04054        2.71453
C         -0.37187      -10.33472        3.70201
C          0.35832       -9.30210        4.29813
C          2.73451       -7.63334        1.90826
N          4.70714       -2.91856        2.37564
H          3.32028        1.19738       -0.27400
H          3.46588       -0.31262       -1.22864
H          2.87684       -1.64791        0.81682
H          2.73366       -0.15430        1.75265
H          5.18945        0.33197        1.36790
H          5.32426       -1.08024        0.33805
H          6.30205       -1.54723        2.47974
H          3.70231       -0.50243        3.69958
H          5.36654       -0.44625        4.35296
H          3.89645       -2.39912        5.36923
H          0.25453       -5.24830        7.39806
H          0.48348       -3.47160        7.35317
H         -0.11130       -3.35760        9.81081
H         -0.33577       -5.10994        9.83710
H         -2.18502       -4.88809        8.12932
H         -1.97086       -3.13734        8.12913
H         -2.81008       -4.82449       10.57906
H         -3.87886       -3.78932        9.61434
H         -2.58826       -3.06342       10.59080
H          4.93377       -6.07321        2.60952
H          3.56450       -5.12189        1.93079
H          3.36563       -7.39309        3.96928
H          0.28947       -6.09657        4.97761
H          1.58915       -7.26627        5.35247
H         -0.97115       -6.64801        2.62321
H         -2.27182       -8.48243        1.56222
H         -1.88501      -10.84384        2.24713
H         -0.20278      -11.36772        4.00767
H          1.09792       -9.53255        5.06850
H          2.23323       -7.05422        1.12053
H          2.11001       -8.50174        2.14128
H          3.69443       -8.00516        1.52102
H          5.05707       -3.56223        1.67367
