50

C          1.78316       -2.46205       -5.84088
C          2.12534       -3.57226       -4.86429
O          2.76282       -3.04007       -3.65274
C          4.09558       -2.88155       -3.69743
O          4.81414       -3.14076       -4.64116
C          4.59585       -2.31769       -2.35489
C          6.08742       -2.11170       -2.37367
C          6.89666       -3.14598       -1.82673
C          8.26650       -3.10425       -1.88270
C          8.89008       -1.99792       -2.51450
C          8.09247       -0.92586       -3.06381
C          6.66756       -0.98892       -2.97803
C          5.80998        0.12082       -3.53035
C          5.35595        1.17963       -2.48196
C          6.49017        2.00885       -1.87637
O          7.11957        2.77770       -2.92143
O          4.37079        2.02519       -3.05626
C          8.78401        0.14267       -3.69422
C         10.15672        0.17285       -3.79622
N         10.85499       -0.88033       -3.24785
C         10.27975       -1.92334       -2.63333
C         10.94400        1.29182       -4.41236
C         11.09068        2.51609       -3.47692
C         11.83967        2.22056       -2.17644
H          1.24424       -2.88902       -6.69836
H          2.68836       -1.97290       -6.22316
H          1.13592       -1.70814       -5.37411
H          2.80024       -4.31470       -5.30863
H          1.22774       -4.07209       -4.48193
H          4.31010       -3.02853       -1.56669
H          4.03569       -1.39582       -2.14987
H          6.40224       -4.00101       -1.36368
H          8.87385       -3.90804       -1.46547
H          4.89479       -0.29459       -3.96812
H          6.31477        0.63977       -4.35568
H          4.85719        0.66131       -1.64600
H          7.23742        1.35981       -1.38764
H          6.06044        2.67278       -1.11297
H          7.20702        3.69418       -2.62321
H          4.83671        2.64575       -3.64438
H          8.23734        0.99142       -4.09980
H         11.87209       -0.85635       -3.31891
H         10.94575       -2.69462       -2.24744
H         10.44233        1.59883       -5.34070
H         11.94200        0.92456       -4.70468
H         10.08645        2.90994       -3.25628
H         11.61605        3.29854       -4.04373
H         11.30244        1.49890       -1.54296
H         11.96510        3.13519       -1.58330
H         12.84715        1.82128       -2.37070
