51

C          0.43925        1.51832       -3.54525
C          1.28646        1.17300       -2.31859
C          2.78131        1.39616       -2.56233
C          3.67199        1.06283       -1.31785
C          4.21781       -0.32371       -1.48920
N          5.47719       -0.26774       -1.83939
C          6.04922        1.08716       -1.90959
C          4.97734        1.89828       -1.16338
N          4.87828        3.25944       -1.70470
O          3.97677        3.89684       -0.78216
O          6.19544        3.79381       -1.45752
C          3.49616       -1.60024       -1.31626
C          3.29503       -1.91501        0.19259
C          2.60603       -3.27740        0.39452
N          2.47290       -3.53955        1.80951
C          2.25554       -4.94667        2.18345
C          2.17925       -5.09706        3.68711
C          3.09511       -4.44760        4.52675
C          3.03658       -4.57674        5.91443
C          2.04244       -5.37402        6.48865
C          1.12377       -6.03628        5.67637
C          1.19054       -5.90252        4.28350
O          0.30530       -6.54863        3.45463
H         -0.62889        1.37807       -3.33639
H          0.69619        0.88346       -4.40550
H          0.58359        2.56498       -3.84939
H          1.09231        0.12815       -2.02215
H          0.97639        1.79184       -1.46074
H          2.96649        2.44858       -2.81556
H          3.11867        0.81930       -3.44001
H          3.05251        1.14511       -0.41521
H          6.01678       -1.09936       -2.08099
H          6.15199        1.39534       -2.96118
H          7.03498        1.11266       -1.43308
H          5.23790        1.96222       -0.09219
H          3.59978        4.62764       -1.30408
H          6.30097        4.45584       -2.16406
H          4.04704       -2.42103       -1.80062
H          2.50977       -1.52724       -1.80085
H          2.68929       -1.12173        0.65658
H          4.26332       -1.92853        0.71257
H          3.23405       -4.07239       -0.04010
H          1.64822       -3.29240       -0.17179
H          1.74903       -2.95680        2.23271
H          3.11009       -5.52531        1.78977
H          1.34722       -5.37347        1.72252
H          3.86146       -3.82196        4.06668
H          3.76065       -4.06122        6.54452
H          1.98011       -5.48496        7.57155
H          0.34626       -6.66322        6.12042
H         -0.32207       -7.05124        3.99917
