84

C          8.41802        4.30503       -7.34625
C          8.83929        3.40658       -6.18169
C          7.76932        2.36783       -5.82691
C          8.20046        1.45762       -4.67599
N          7.18043        0.41136       -4.45274
C          6.55710        0.02634       -3.32464
N          7.12285        0.06302       -2.10124
C          8.59938        0.08816       -1.92126
O          9.14658        1.36237       -1.76819
C          9.25169        1.90712       -0.42119
C         10.20707        1.14898        0.49171
C         11.64266        1.05626       -0.03492
C         12.59099        0.34113        0.93189
C         14.01709        0.20266        0.39140
C         14.97020       -0.50428        1.35917
C         16.38126       -0.69813        0.79648
C         17.32878       -1.41778        1.76076
C         18.73130       -1.64521        1.19031
C         19.67211       -2.37702        2.15285
C         21.07186       -2.59975        1.57678
C          6.29491       -0.11499       -0.88801
C          6.11403       -1.57778       -0.45303
C          5.32346       -1.63800        0.85685
S          5.07089       -3.37743        1.30880
C          4.22850       -3.19966        2.89473
S          3.93508       -1.70802        3.56995
N          3.88677       -4.38981        3.44581
C          4.15290       -5.70740        2.85888
C          2.86765       -6.54270        2.85159
O          2.30524       -6.64873        4.15135
C          1.99695       -5.35487        4.67128
C          3.24143       -4.47615        4.76303
N          5.28921       -0.43281       -3.45308
H          9.19872        5.04009       -7.57913
H          7.49823        4.85945       -7.11102
H          8.23084        3.71757       -8.25681
H          9.05574        4.02332       -5.29446
H          9.77878        2.88806       -6.43310
H          7.55613        1.75247       -6.71999
H          6.82783        2.87530       -5.55960
H          8.33449        2.01860       -3.74420
H          9.16275        0.97757       -4.91328
H          6.74996        0.06383       -5.30621
H          9.04566       -0.35688       -2.82014
H          8.81132       -0.56455       -1.06045
H          8.24858        1.99603        0.02897
H          9.62172        2.92655       -0.59625
H          9.82055        0.13877        0.71520
H         10.19534        1.67785        1.45984
H         12.01940        2.07370       -0.23696
H         11.64920        0.53475       -1.00646
H         12.19103       -0.66267        1.16136
H         12.61217        0.88466        1.89230
H         14.41580        1.20322        0.14998
H         13.99064       -0.35153       -0.56358
H         14.54970       -1.48838        1.63094
H         15.02665        0.07079        2.29956
H         16.80731        0.28446        0.52883
H         16.32027       -1.26905       -0.14678
H         16.88921       -2.39079        2.04265
H         17.40522       -0.83798        2.69717
H         19.17691       -0.67338        0.91414
H         18.65408       -2.22039        0.25070
H         19.22582       -3.34838        2.42520
H         19.74563       -1.80355        3.09209
H         21.03158       -3.20266        0.65753
H         21.72281       -3.12421        2.28940
H         21.55529       -1.64461        1.32422
H          5.32331        0.37160       -1.05492
H          6.78742        0.44526       -0.08376
H          7.09929       -2.05243       -0.32358
H          5.59851       -2.16376       -1.23342
H          4.34112       -1.15308        0.76711
H          5.85732       -1.14004        1.67800
H          4.92705       -6.21556        3.45882
H          4.52598       -5.60227        1.83247
H          3.08798       -7.56555        2.51781
H          2.13766       -6.08821        2.15266
H          1.57437       -5.51322        5.67206
H          1.23505       -4.86283        4.03642
H          3.96064       -4.91680        5.47429
H          2.99303       -3.45972        5.09023
H          4.75084       -0.22710       -4.28473
H          4.87706       -1.04740       -2.76297
