75

C         -0.34803       -5.89861       -6.11819
C          1.13863       -6.12516       -5.83132
C          2.00049       -4.87996       -6.06967
C          3.48835       -5.09873       -5.77762
C          4.35462       -3.85793       -6.01863
C          5.83765       -4.08444       -5.70900
C          6.71798       -2.85142       -5.93834
C          8.19210       -3.10023       -5.60520
C          9.10197       -1.88354       -5.81513
C         10.57657       -2.17097       -5.49425
C         11.27578       -3.04847       -6.55415
C         12.42344       -3.88494       -5.98825
O         13.25357       -4.48108       -6.96626
C         12.69868       -5.68781       -7.50126
N         12.62166       -6.68194       -6.42763
C         12.17811       -6.25643       -5.23446
N         11.98443       -7.09173       -4.19368
C         11.85382       -8.50513       -4.15855
C         11.58383       -9.32207       -5.25954
C         11.42542      -10.69825       -5.08113
C         11.52499      -11.25764       -3.80809
C         11.77452      -10.44862       -2.69552
C         11.93948       -9.07281       -2.86330
O         12.16563       -8.17022       -1.85932
C         12.16104       -8.64224       -0.50277
N         11.89961       -4.94954       -5.08814
C         13.56305       -6.18101       -8.66599
C         14.98031       -6.56221       -8.22383
O         14.90277       -7.78038       -7.44659
C         12.82801       -7.29159       -9.44980
C         13.56348       -7.76275      -10.70634
H         -0.93601       -6.80953       -5.94103
H         -0.51171       -5.59587       -7.16313
H         -0.76230       -5.10634       -5.47709
H          1.51411       -6.95073       -6.45988
H          1.26621       -6.45939       -4.78752
H          1.62394       -4.05136       -5.44423
H          1.87782       -4.54677       -7.11537
H          3.86325       -5.93109       -6.39967
H          3.60878       -5.42805       -4.73018
H          3.97732       -3.02320       -5.40259
H          4.24492       -3.53204       -7.06771
H          6.21419       -4.91986       -6.32660
H          5.94200       -4.41474       -4.65998
H          6.34241       -2.01178       -5.32870
H          6.63016       -2.52544       -6.98915
H          8.54952       -3.95258       -6.21123
H          8.27323       -3.42545       -4.55141
H          8.75295       -1.05761       -5.17614
H          9.01529       -1.52017       -6.85320
H         10.61535       -2.64830       -4.49695
H         11.13654       -1.23056       -5.38593
H         11.70124       -2.41364       -7.34426
H         10.54869       -3.72117       -7.03362
H         13.10255       -3.24978       -5.39481
H         11.67240       -5.49445       -7.85923
H         13.33130       -7.42964       -6.46276
H         11.96746       -6.67491       -3.26221
H         11.47819       -8.89146       -6.25299
H         11.21633      -11.32811       -5.94473
H         11.40330      -12.33150       -3.66987
H         11.83717      -10.89277       -1.70384
H         12.97328       -9.36470       -0.33512
H         11.19239       -9.09706       -0.24813
H         12.32746       -7.75648        0.11767
H         11.30709       -4.65704       -4.31784
H         13.67402       -5.30462       -9.32577
H         15.41995       -5.74862       -7.62505
H         15.61244       -6.71903       -9.11108
H         15.79550       -8.03612       -7.16834
H         11.83548       -6.90412       -9.73014
H         12.64694       -8.15588       -8.79226
H         13.80534       -6.92337      -11.37422
H         12.93914       -8.46570      -11.27216
H         14.49863       -8.28500      -10.46338
