97

C          0.45248        0.20070        0.54119
C          1.97311        0.13374        0.37994
C          2.73228        0.80739        1.52815
C          4.25588        0.71104        1.40313
C          5.00686        1.36207        2.56880
C          6.52561        1.17412        2.50373
C          7.26660        1.77373        3.70292
C          8.76582        1.45834        3.71264
C          9.47897        1.96219        4.97371
C         10.91893        1.48681        5.04888
O         11.48339        1.89107        6.30746
C         12.75787        1.32254        6.53409
C         13.17453        1.69056        7.96399
C         14.42925        0.96379        8.51776
C         15.65069        1.34568        7.67603
N         15.54374        2.74164        7.25067
C         14.52920        3.59765        7.51689
N         14.69103        4.87840        7.15346
N         13.39449        3.15168        8.09582
C         12.41630        4.04980        8.86464
C         13.21117        4.93236        9.89066
C         12.29573        5.85299       10.71818
C         14.11914        4.11611       10.82244
C         11.57612        4.88982        7.85483
O         12.24584        6.02787        7.27722
C         11.38420        3.17074        9.58953
C         14.24793       -0.50701        8.65391
N         14.08374       -1.18031        9.75208
N         13.79982       -2.49422        9.38362
C         13.82859       -2.52457        8.07610
O         14.12453       -1.28759        7.53053
S         13.55796       -3.88150        7.03513
C         12.95926       -3.01405        5.52640
C         12.40693       -4.03108        4.52865
C         11.90491       -3.33134        3.25771
C         11.30550       -4.29204        2.22550
C         10.85721       -3.58913        0.93993
C         10.24917       -4.53673       -0.10028
C          9.84352       -3.82966       -1.39571
H         -0.06422       -0.28901       -0.29549
H          0.09990        1.24199        0.58489
H          0.12753       -0.29602        1.46764
H          2.26573        0.60299       -0.57461
H          2.28976       -0.92067        0.30648
H          2.41863        0.35286        2.48483
H          2.43421        1.86910        1.58895
H          4.57863        1.17259        0.45337
H          4.54631       -0.35253        1.33499
H          4.63445        0.93904        3.51872
H          4.76793        2.43940        2.60575
H          6.91529        1.61300        1.56889
H          6.75047        0.09430        2.44660
H          6.81543        1.38671        4.63351
H          7.11588        2.86691        3.72578
H          9.24366        1.88511        2.81430
H          8.89864        0.36451        3.63623
H          8.94817        1.59764        5.86839
H          9.45049        3.06359        5.01434
H         11.52588        1.89956        4.21971
H         10.96194        0.38243        4.97311
H         13.49085        1.69000        5.78703
H         12.71464        0.22448        6.43666
H         12.34007        1.42215        8.61237
H         14.56145        1.32298        9.54811
H         15.71645        0.71072        6.77941
H         16.57469        1.20442        8.25540
H         16.24116        3.06902        6.59080
H         15.61564        5.23749        6.95269
H         13.86783        5.50782        7.11892
H         13.86712        5.59543        9.30939
H         11.69812        5.29790       11.45376
H         11.59849        6.44312       10.10569
H         12.91236        6.56796       11.27809
H         13.55270        3.41161       11.44782
H         14.65420        4.79167       11.50245
H         14.88187        3.54691       10.27456
H         10.65483        5.22483        8.34959
H         11.29661        4.23219        7.02114
H         12.09255        6.80533        7.83683
H         11.84003        2.45874       10.28788
H         10.74464        2.62472        8.88464
H         10.73043        3.82330       10.17767
H         13.79338       -2.44826        5.09011
H         12.17279       -2.31050        5.83486
H         11.58585       -4.59911        4.99432
H         13.18808       -4.76283        4.26598
H         12.73954       -2.77533        2.79564
H         11.14873       -2.57415        3.53267
H         10.44846       -4.82303        2.67443
H         12.04778       -5.06990        1.97692
H         11.72093       -3.06563        0.49241
H         10.12306       -2.80170        1.18829
H          9.37112       -5.04076        0.33735
H         10.97351       -5.33669       -0.32816
H          9.09722       -3.04331       -1.20702
H          9.40714       -4.53301       -2.11773
H         10.70967       -3.35379       -1.87942
