64

C          1.18078        1.08484       -1.70860
C          2.37073        0.66374       -0.87136
O          3.53742        1.53806       -1.12349
C          4.37424        1.16591       -2.11934
O          4.26997        0.18270       -2.81066
C          5.55100        2.14378       -2.27229
N          5.20862        3.49375       -1.61759
C          5.91393        3.74565       -0.30247
C          5.40289        5.03438        0.32634
O          5.55070        6.12382       -0.56459
C          4.74397        5.91760       -1.71671
C          5.24953        4.74123       -2.58867
C          4.29776        4.46373       -3.76931
C          2.80026        4.26269       -3.46589
O          2.28485        5.57969       -3.30071
C          0.98451        5.68442       -2.68022
C          0.83191        7.10114       -2.19974
C          0.54221        8.12727       -3.11066
C          0.47250        9.45346       -2.68166
C          0.68301        9.76658       -1.33488
C          0.96168        8.74974       -0.41786
C          1.03845        7.42404       -0.85159
C          2.10897        3.47639       -4.58147
C          6.72718        4.92612       -3.01891
C          7.08739        5.56683       -4.38465
C          6.88231        7.09262       -4.47076
F          7.56950        7.72977       -3.48225
F          7.30861        7.57497       -5.64869
F          5.56872        7.43506       -4.34085
O          8.43370        5.25568       -4.69366
C          6.84521        1.47628       -1.79982
H          0.32349        0.44800       -1.45061
H          1.37832        0.95993       -2.78032
H          0.89415        2.12632       -1.51044
H          2.68204       -0.36636       -1.08215
H          2.19056        0.78562        0.20285
H          5.63682        2.33842       -3.34635
H          4.20811        3.39536       -1.36919
H          6.98988        3.80549       -0.49528
H          5.70967        2.88526        0.34700
H          5.99383        5.25613        1.22470
H          4.34160        4.92534        0.63046
H          4.76726        6.84049       -2.30302
H          3.69487        5.75082       -1.41993
H          4.67007        3.62451       -4.37421
H          4.34339        5.34251       -4.42718
H          2.64713        3.70657       -2.51293
H          0.92341        4.97720       -1.83043
H          0.19633        5.41826       -3.40506
H          0.37708        7.88480       -4.16223
H          0.24821       10.24496       -3.39747
H          0.62203       10.80238       -0.99957
H          1.11341        8.98894        0.63529
H          1.24778        6.62870       -0.13116
H          2.22122        3.99630       -5.54303
H          1.03719        3.35943       -4.37824
H          2.54021        2.46948       -4.67676
H          7.20748        3.94177       -3.09710
H          7.25812        5.47655       -2.22830
H          6.49318        5.12817       -5.19942
H          9.02638        5.78261       -4.12936
H          6.81365        1.17991       -0.74469
H          7.72234        2.11133       -1.97107
H          6.97228        0.56585       -2.39793
