84

N          4.00389        0.06701        1.70999
C          3.51988        1.44876        1.61171
C          4.35095        2.24136        0.58990
C          4.23340        1.64128       -0.81459
C          5.08347        2.28578       -1.92475
C          4.79008        1.59473       -3.26750
O          5.39405        2.34368       -4.29882
C          5.16304        1.81412       -5.61791
C          5.69089        2.81993       -6.62743
C          5.48703        2.39680       -8.08656
C          5.93887        3.48306       -9.06961
C          5.75948        3.11406      -10.54505
C          6.18236        4.23745      -11.49733
C          6.03883        3.88523      -12.98081
C          6.44968        5.02495      -13.91817
C          6.33287        4.67524      -15.40491
C          6.74252        5.82496      -16.32807
N          4.72403        3.73437       -2.06396
C          5.63866        4.57420       -1.72504
C          6.88754        3.89278       -1.28711
C          6.60581        2.40269       -1.62053
C          8.13797        4.51741       -1.95289
C          8.47814        5.92095       -1.40556
C          8.96378        6.92237       -2.46913
P          7.61787        7.40882       -3.61386
O          6.26030        6.96180       -3.18689
O          7.63047        9.00304       -3.75158
C          8.79078        9.75520       -4.22417
C          8.31345       11.10869       -4.70790
O          8.12426        6.79066       -5.00870
C          7.19308        6.58425       -6.12264
C          6.95734        7.84470       -6.93297
H          3.29525       -0.53669        2.12522
H          4.82133        0.01091        2.31905
H          3.52257        1.99649        2.57197
H          2.47226        1.41575        1.27331
H          5.40259        2.24087        0.92313
H          4.01334        3.29021        0.60437
H          3.17479        1.66357       -1.12758
H          4.50856        0.57630       -0.76054
H          3.69400        1.52107       -3.42199
H          5.18278        0.56032       -3.21572
H          4.07832        1.64726       -5.76184
H          5.66953        0.83549       -5.71781
H          6.76309        2.98706       -6.43392
H          5.18313        3.78251       -6.45014
H          4.42185        2.16846       -8.26221
H          6.03930        1.46331       -8.28680
H          7.00155        3.72060       -8.88381
H          5.37755        4.41113       -8.85948
H          4.70317        2.85399      -10.73194
H          6.34171        2.20352      -10.76868
H          7.23217        4.51214      -11.29118
H          5.58467        5.14046      -11.27941
H          4.99311        3.59937      -13.18997
H          6.64777        2.99165      -13.20367
H          7.49029        5.32215      -13.69688
H          5.82982        5.91399      -13.70474
H          5.29479        4.37517      -15.62636
H          6.95593        3.79022      -15.61801
H          6.11198        6.71155      -16.16373
H          6.65172        5.54430      -17.38624
H          7.78647        6.12448      -16.15175
H          3.81188        4.02660       -2.42025
H          5.50385        5.65657       -1.83930
H          6.97309        4.04936       -0.19465
H          6.89667        1.73377       -0.80346
H          7.17249        2.12170       -2.51762
H          7.97035        4.54632       -3.03990
H          8.97892        3.82831       -1.78805
H          9.24896        5.83270       -0.62600
H          7.59765        6.35640       -0.90879
H          9.80185        6.52073       -3.05625
H          9.32132        7.83844       -1.97628
H          9.28321        9.19155       -5.03103
H          9.49612        9.85954       -3.38411
H          7.62481       11.00295       -5.55601
H          9.17425       11.70683       -5.03583
H          7.79879       11.65424       -3.90686
H          6.25343        6.18673       -5.71291
H          7.67181        5.80454       -6.72814
H          6.44053        8.61348       -6.34434
H          6.32559        7.60119       -7.79890
H          7.90205        8.25682       -7.31181
