94

C          3.61353      -14.64074       -7.95604
C          5.10997      -14.34644       -8.08000
C          5.71435      -13.75043       -6.80469
C          7.20905      -13.43700       -6.92082
C          7.80975      -12.84153       -5.64392
C          9.29911      -12.50165       -5.76410
C          9.87384      -11.86729       -4.49209
C         11.38243      -11.57219       -4.53830
C         11.84530      -10.62598       -5.66148
C         11.16576       -9.24805       -5.69303
C         11.39155       -8.38532       -4.45221
O         12.77508       -8.09116       -4.17243
C         13.34720       -7.13837       -5.05542
C         14.73666       -6.71026       -4.56415
C         15.79449       -7.81622       -4.61595
N         15.62188       -8.74818       -3.50056
C         15.08325       -8.38922       -2.31860
N         14.92423       -9.33604       -1.37171
C         15.22597      -10.75859       -1.54545
C         15.07472      -11.53141       -0.22545
C         13.64661      -11.46587        0.33200
C         15.50931      -12.98546       -0.44387
N         14.74678       -7.11004       -2.07617
C         14.74208       -6.10191       -3.15663
C         14.27742       -6.67659       -0.74543
C         15.37588       -6.51516        0.31556
C         16.46341       -5.46325        0.01698
C         15.88578       -4.03841       -0.07129
C         16.87821       -2.96922       -0.57024
C         16.20450       -1.65626       -0.85367
C         16.41182       -0.46628       -0.25948
C         17.41042       -0.21642        0.83913
C         15.62818        0.74921       -0.68079
C         17.57026       -5.56826        1.07582
H          3.20970      -15.07548       -8.88052
H          3.04427      -13.72370       -7.74295
H          3.41366      -15.35034       -7.13947
H          5.28176      -13.65309       -8.92068
H          5.64925      -15.27367       -8.33702
H          5.55070      -14.44825       -5.96466
H          5.16808      -12.82738       -6.54125
H          7.36922      -12.73663       -7.75952
H          7.75610      -14.35833       -7.18709
H          7.66263      -13.54590       -4.80661
H          7.25051      -11.92861       -5.37196
H          9.44051      -11.82391       -6.62349
H          9.86695      -13.41785       -6.00489
H          9.68007      -12.53991       -3.64001
H          9.31442      -10.94241       -4.26699
H         11.92695      -12.52468       -4.65216
H         11.69269      -11.16554       -3.55979
H         11.68225      -11.11065       -6.63589
H         12.93614      -10.48729       -5.57773
H         10.07562       -9.36419       -5.80537
H         11.49106       -8.70073       -6.59213
H         11.03054       -8.89932       -3.54996
H         10.83321       -7.43492       -4.54383
H         12.69795       -6.24185       -5.11701
H         13.44293       -7.54147       -6.08211
H         15.06471       -5.91592       -5.25241
H         16.80428       -7.37783       -4.57592
H         15.71976       -8.39141       -5.54743
H         15.65255       -9.74006       -3.70088
H         14.39045       -9.08266       -0.54876
H         16.26435      -10.85950       -1.90176
H         14.55424      -11.20331       -2.30446
H         15.76213      -11.07118        0.50531
H         12.92517      -11.89550       -0.37948
H         13.31285      -10.44396        0.57125
H         13.57770      -12.03967        1.26535
H         14.85490      -13.48924       -1.17109
H         15.45252      -13.54804        0.49676
H         16.54290      -13.05163       -0.81098
H         15.61744       -5.44432       -3.03234
H         13.84331       -5.48484       -3.01531
H         13.49396       -7.36895       -0.39139
H         13.75936       -5.72314       -0.90608
H         15.86462       -7.48739        0.48958
H         14.86991       -6.25658        1.26147
H         16.91610       -5.71020       -0.96256
H         15.49919       -3.74136        0.91881
H         15.01394       -4.02307       -0.74778
H         17.35089       -3.34191       -1.49940
H         17.69392       -2.84399        0.15471
H         15.44289       -1.69234       -1.64277
H         17.95725       -1.11390        1.15026
H         16.90925        0.20132        1.72656
H         18.14953        0.53627        0.52207
H         14.91873        0.52167       -1.48681
H         16.30142        1.54875       -1.02971
H         15.06522        1.16897        0.16835
H         17.18146       -5.30938        2.07279
H         18.40670       -4.89262        0.85825
H         17.97619       -6.58873        1.12959
