50

C          1.39514        1.82095       -1.47617
C          2.67335        1.14626       -0.97533
C          3.18866        1.74328        0.33771
C          4.47005        1.07845        0.84829
C          4.99756        1.71201        2.14103
C          6.29895        1.05312        2.61759
C          6.98388        1.75725        3.81289
C          6.18222        1.63055        5.11658
C          6.68868        2.46717        6.29556
C          5.86066        2.22548        7.57682
C          5.92610        0.85350        8.06732
C          5.98603       -0.28844        8.46620
O          7.13963        3.15584        3.59586
C          8.03910        3.46988        2.55851
N          9.37179        3.00168        2.92837
C          9.47038        1.84420        3.62792
N         10.71208        1.39655        3.90973
N          8.38191        1.15738        3.98554
C          8.51821       -0.25615        4.41916
C          8.90223       -0.47460        5.88509
H          1.05203        1.37840       -2.42050
H          1.55385        2.89554       -1.65003
H          0.57932        1.72043       -0.74546
H          3.46090        1.22846       -1.74337
H          2.49407        0.06681       -0.83798
H          2.40267        1.66330        1.10865
H          3.36889        2.82393        0.19929
H          5.24866        1.14072        0.06742
H          4.28741        0.00224        1.01034
H          4.22456        1.63709        2.92180
H          5.16213        2.78892        1.97768
H          7.01041        1.00116        1.77720
H          6.09664        0.00754        2.89552
H          6.12166        0.56839        5.39772
H          5.15362        1.93486        4.87411
H          6.63310        3.53421        6.04452
H          7.74554        2.24321        6.50698
H          4.80640        2.49254        7.39287
H          6.21365        2.90725        8.36647
H          6.01561       -1.28408        8.85771
H          8.05985        4.56064        2.45819
H          7.73815        3.01792        1.60028
H         10.09350        3.69703        3.09305
H         11.51408        1.79234        3.43570
H         10.86890        0.64766        4.57047
H          9.24694       -0.73177        3.74493
H          7.55605       -0.74020        4.21769
H          9.83868        0.02474        6.17411
H          9.04222       -1.55149        6.04981
H          8.12070       -0.13142        6.57383
