44

C          1.86027       -1.10687        1.49394
C          3.33631       -1.09706        1.14558
O          4.04224       -0.02593        1.87008
C          4.05988        1.17931        1.29468
O          3.53500        1.45794        0.22511
C          4.80002        2.20316        2.15935
C          3.87372        3.38335        2.52539
C          3.48253        4.25354        1.33292
C          2.66574        5.48641        1.71353
C          2.09102        6.26215        0.51943
C          1.38227        7.54058        0.95237
F          0.37095        7.28117        1.81768
F          2.24537        8.38872        1.57854
F          0.86639        8.19146       -0.11164
N          4.77936        4.69150        0.64957
C          5.69238        3.56523        0.21829
C          6.07931        2.70713        1.43318
N          6.93310        1.59975        1.01398
C          8.06732        2.00833        0.17862
C          7.40865        0.80230        2.15216
H          1.37980       -1.96395        1.00243
H          1.35876       -0.19615        1.14273
H          1.70813       -1.20940        2.57614
H          3.50779       -0.95064        0.07199
H          3.84548       -2.00739        1.48166
H          5.09589        1.71671        3.09541
H          4.36561        4.00535        3.29313
H          2.95100        3.00400        2.98588
H          2.96772        3.63942        0.57958
H          3.26935        6.15491        2.35126
H          1.83657        5.14058        2.34734
H          1.36443        5.65302       -0.03644
H          2.86311        6.58807       -0.19666
H          5.29043        5.31063        1.29815
H          4.54980        5.26353       -0.17334
H          6.56296        4.04408       -0.24256
H          5.14668        2.97189       -0.52602
H          6.61266        3.37916        2.15777
H          7.73472        2.38475       -0.79716
H          8.68414        1.12503       -0.02162
H          8.71682        2.77142        0.65874
H          6.57715        0.31161        2.66953
H          7.98588        1.40265        2.88598
H          8.06318        0.01073        1.77014
