69

C          9.27146        3.90713        9.18478
C          9.45166        4.78986        7.94809
C          9.08434        4.07938        6.64129
C          9.27407        4.94970        5.39528
C          8.88066        4.24678        4.09225
C          9.09743        5.10796        2.84383
C          8.65455        4.40933        1.55329
C          8.85532        5.23027        0.29164
O         10.27330        5.41775        0.07383
C         10.56597        6.14859       -1.07788
C         12.09399        6.33653       -1.13444
C         12.89752        5.03755       -0.95118
C         12.70196        4.06567       -2.08029
C         13.64639        3.78729       -2.98926
N         12.41925        6.94472       -2.54588
C         13.14128        8.24185       -2.28544
C         12.62088        8.59620       -0.88810
O         12.57782        7.30733       -0.24282
C         13.50524        9.52321       -0.07132
C         13.66612       10.88036       -0.74686
O         13.30686       11.10791       -1.89138
O         14.26857       11.74542        0.07285
C         14.53505       13.09507       -0.44904
C         13.37676       14.03795       -0.16681
C         13.71305       15.47616       -0.58064
C         12.56340       16.45665       -0.32534
C         12.90586       17.89315       -0.72357
H          9.54726        4.44083       10.10442
H          9.89712        3.00400        9.12374
H          8.22693        3.57827        9.29091
H         10.49742        5.13737        7.89073
H          8.83539        5.69917        8.05036
H          8.03434        3.74152        6.69500
H          9.69195        3.16249        6.54211
H         10.32900        5.27076        5.33314
H          8.68126        5.87500        5.50279
H          7.82054        3.94368        4.14827
H          9.45806        3.31086        3.99327
H         10.16224        5.38177        2.76886
H          8.54140        6.05593        2.95084
H          7.58132        4.16469        1.61228
H          9.18242        3.44824        1.43825
H          8.37436        6.22288        0.38184
H          8.42456        4.71681       -0.58814
H         10.07783        7.14730       -1.07308
H         10.22563        5.61640       -1.99627
H         12.56997        4.61015        0.00719
H         13.95771        5.31453       -0.85404
H         11.72769        3.57185       -2.14869
H         14.65051        4.21642       -2.92497
H         13.46964        3.07651       -3.79652
H         11.54739        7.10933       -3.06446
H         12.96065        6.24294       -3.08189
H         12.90433        8.98392       -3.05233
H         14.21836        8.03674       -2.27091
H         11.60322        9.02143       -0.96851
H         14.50137        9.07365        0.06783
H         13.08211        9.65516        0.93385
H         14.74325       13.01487       -1.52410
H         15.44476       13.40137        0.08270
H         13.13946       14.00499        0.90858
H         12.48375       13.69180       -0.71081
H         13.97971       15.50024       -1.65133
H         14.60921       15.81599       -0.03346
H         12.29011       16.42285        0.74241
H         11.67174       16.11980       -0.87982
H         13.77052       18.26846       -0.15713
H         12.06399       18.57195       -0.53328
H         13.15423       17.96208       -1.79286
