43

C          1.72846       -1.61878       -1.75440
C          3.12177       -1.18123       -2.15969
O          4.14649       -1.77178       -1.28729
P          4.59960       -1.02853        0.07044
O          4.04428        0.32682        0.26228
O          4.37547       -2.10978        1.23030
C          3.02678       -2.35945        1.75210
C          3.15770       -3.00453        3.11424
C          6.42512       -1.08706       -0.03234
C          6.97998       -2.50289       -0.18523
N          8.41869       -2.49352       -0.58033
C          8.83290       -2.37061       -1.84689
N         10.17203       -2.33968       -1.85998
C         10.65026       -2.45290       -0.57370
C          9.54899       -2.54284        0.24391
N          9.57948       -2.68027        1.64874
O          8.86260       -3.88600        1.94311
O          8.83437       -1.57518        2.17507
C         12.12934       -2.43440       -0.28019
C         12.66983       -1.05565        0.19377
F         12.32656       -0.12567       -0.74521
F         12.07521       -0.72415        1.37170
F         12.44316       -3.37017        0.65147
F         12.78775       -2.74290       -1.44987
H          1.00015       -1.24108       -2.48599
H          1.45383       -1.21209       -0.77230
H          1.64646       -2.71357       -1.72785
H          3.22501       -0.08815       -2.12666
H          3.38243       -1.53939       -3.16390
H          2.50969       -3.01637        1.03641
H          2.49203       -1.40001        1.80801
H          3.70774       -3.95286        3.05346
H          2.15742       -3.21563        3.51622
H          3.67487       -2.33816        3.81641
H          6.82572       -0.60106        0.86642
H          6.68106       -0.46188       -0.90093
H          6.45484       -3.05856       -0.97311
H          6.90408       -3.07307        0.74510
H          8.18934       -2.31064       -2.71813
H         10.75840       -2.27191       -2.68985
H          9.39727       -4.29092        2.65118
H          9.38350       -1.27951        2.92502
H         13.76411       -1.07833        0.31704
