53

Br        11.18196        2.33245        0.73884
C          9.74414        1.00531        0.75021
C          8.76724        1.27911        1.88461
C          7.61900        0.23981        1.87451
C          6.65331        0.43602        2.99221
N          6.77397       -0.12096        4.18426
N          5.72595        0.36140        4.91301
C          4.97515        1.18963        4.19316
N          5.53885        1.26086        2.96753
C          5.03296        2.09249        1.85346
C          4.11582        1.34390        0.87413
C          2.83881        0.71464        1.46063
P          1.76656        1.86089        2.39046
O          2.40835        2.40424        3.62162
O          1.39223        3.06674        1.40877
C          0.57140        2.90970        0.20562
C          0.08153        4.27977       -0.21107
O          0.47008        0.95872        2.61317
C         -0.45418        1.19201        3.73677
C         -1.76212        1.77545        3.24570
C          5.51415       -0.06890        6.30748
C          4.63126       -1.31600        6.43138
C          5.23537       -2.59249        5.84511
H         10.23400        0.03045        0.85392
H          9.26902        1.06931       -0.23561
H          8.36506        2.29862        1.78642
H          9.29122        1.23233        2.84952
H          8.03516       -0.77175        1.98135
H          7.08749        0.27024        0.91169
H          4.04335        1.70085        4.46006
H          5.90888        2.48484        1.32196
H          4.50792        2.93727        2.31558
H          4.68733        0.55570        0.36108
H          3.84731        2.07906        0.10077
H          3.07475       -0.11055        2.15021
H          2.24893        0.26655        0.64765
H         -0.26307        2.23054        0.43160
H          1.19442        2.45211       -0.57966
H         -0.55031        4.72408        0.56831
H         -0.51325        4.19288       -1.13048
H          0.92225        4.95733       -0.40679
H          0.04380        1.84218        4.46927
H         -0.60032        0.20085        4.18540
H         -1.62646        2.78343        2.83184
H         -2.46200        1.85088        4.09004
H         -2.22110        1.13175        2.48411
H          5.06752        0.78551        6.83241
H          6.51769       -0.24498        6.71624
H          3.64797       -1.10404        5.98149
H          4.44880       -1.44877        7.50882
H          5.40276       -2.51404        4.76241
H          4.56397       -3.44337        6.01574
H          6.20096       -2.82814        6.31362
