46

C          2.32569       -2.00511       -2.38301
C          3.65921       -2.67580       -2.04331
C          4.31248       -2.08590       -0.78419
C          5.62690       -2.77292       -0.44989
O          6.31241       -2.13586        0.67715
C          5.95152       -2.55861        1.92254
N          6.83470       -3.78686        2.34856
C          6.35557       -4.44326        3.57549
C          6.05417       -5.79998        3.53568
C          5.63200       -6.40005        4.72764
N          5.49871       -5.73464        5.88148
C          5.78723       -4.42658        5.88713
C          6.22975       -3.72371        4.76148
C          8.34585       -3.46148        2.36331
C          9.12955       -4.71058        2.07408
C          9.21120       -5.11283        0.72824
C          9.86103       -6.29054        0.36694
C         10.45132       -7.07129        1.36387
C         10.39092       -6.66667        2.69748
C          9.73152       -5.49002        3.08791
C          9.70454       -5.11243        4.54933
H          1.88634       -2.43952       -3.28995
H          2.45308       -0.92736       -2.55794
H          1.59668       -2.12788       -1.56889
H          4.35297       -2.57118       -2.89371
H          3.50343       -3.75931       -1.90672
H          3.61402       -2.16968        0.06610
H          4.50878       -1.01181       -0.92775
H          6.34251       -2.69384       -1.27905
H          5.47829       -3.84883       -0.23747
H          4.91302       -2.91505        2.01641
H          6.16089       -1.76905        2.65514
H          6.73137       -4.47517        1.58727
H          6.16224       -6.38669        2.62149
H          5.39694       -7.46682        4.75024
H          5.66591       -3.90702        6.84070
H          6.47160       -2.66366        4.83786
H          8.55607       -3.01072        3.33845
H          8.47548       -2.71081        1.57383
H          8.77948       -4.47540       -0.04942
H          9.92563       -6.58540       -0.68024
H         10.97493       -7.99075        1.10057
H         10.87356       -7.27549        3.46393
H         10.46903       -5.67234        5.10014
H          8.73680       -5.34565        5.01706
H          9.90361       -4.04436        4.71539
