24

C          1.03867       -0.46709        0.22181
O          2.45472       -0.60572       -0.11822
C          3.19517       -1.29467        0.74171
O          2.81773       -1.82953        1.76921
C          4.65839       -1.34615        0.29523
P          5.53822       -2.42256        1.46745
C          5.04225       -4.06579        1.27055
C          4.71668       -5.22670        1.14617
C          7.34969       -2.36373        1.25094
C          7.87928       -0.99709        1.67098
C          7.79393       -0.52461        3.06060
O          6.85304       -0.05423        2.06584
H          0.60280        0.08088       -0.61642
H          0.93688        0.09495        1.15701
H          0.58303       -1.45815        0.32719
H          5.11908       -0.34818        0.33094
H          4.76575       -1.74565       -0.72364
H          5.19512       -2.04993        2.77985
H          4.41990       -6.25419        1.04344
H          7.55126       -2.57722        0.19083
H          7.77843       -3.19035        1.83723
H          8.65217       -0.57489        1.02290
H          8.49952        0.23154        3.41166
H          7.37041       -1.17215        3.83547
