45

C          2.83925       -0.76793        2.39145
C          2.34974        0.58633        1.88959
C          3.10973        1.00094        0.62457
N          2.68154        2.31284        0.11730
C          3.13657        3.52432        0.61844
C          2.47574        4.52682       -0.03714
N          1.62843        3.87898       -0.92481
C          1.74388        2.53788       -0.82753
C          0.95587        1.53826       -1.60215
C          0.40525        2.07034       -2.93586
C         -0.38644        0.98494       -3.67861
C         -0.87660        1.47886       -5.04275
S         -1.92227        0.20417       -5.80228
O         -1.11360       -0.95823       -6.08594
O         -3.15449        0.10605       -5.05575
Cl        -2.35586        1.12705       -7.61215
C          2.58267        6.01302        0.05058
C          3.92230        6.53695       -0.49446
C          3.91542        8.07845       -0.55992
F          3.58425        8.64759        0.61741
F          5.14644        8.52842       -0.90994
F          3.03152        8.50400       -1.49837
O          4.93748        6.06175        0.36662
O          0.96696        0.57718        1.51613
H          3.90331       -0.73136        2.66444
H          2.69498       -1.54654        1.62955
H          2.28269       -1.06256        3.29151
H          2.52087        1.35595        2.66751
H          2.94697        0.25802       -0.16661
H          4.18680        1.05971        0.82388
H          3.90453        3.58251        1.37961
H          0.99281        4.34255       -1.56801
H          0.13899        1.17419       -0.95668
H          1.59241        0.66002       -1.78992
H          1.23646        2.42794       -3.56518
H         -0.26321        2.93126       -2.76029
H         -1.24841        0.67656       -3.06717
H          0.24288        0.09336       -3.82033
H         -0.05641        1.65988       -5.75033
H         -1.50907        2.37438       -4.97255
H          2.49626        6.32956        1.09986
H          1.75457        6.48304       -0.49804
H          4.07340        6.19381       -1.53583
H          5.79825        6.38974        0.05595
H          0.44303        0.26085        2.26924
