73

C          0.96869        0.45835       -0.13762
C          2.47305        0.38557       -0.41125
C          2.94594       -1.00789       -0.84271
C          4.45469       -1.09097       -1.09587
C          4.93954       -2.49300       -1.48002
C          6.45525       -2.57365       -1.69024
C          6.95991       -3.98616       -2.00555
C          8.48187       -4.05511       -2.17217
C          9.00908       -5.47804       -2.39194
C         10.53671       -5.51563       -2.55880
C         11.05915       -6.94343       -2.65138
N         12.57304       -6.99008       -2.84231
C         13.35108       -6.65826       -1.58703
C         14.71164       -6.01814       -1.90478
C         15.35608       -5.50157       -0.66482
C         16.47330       -5.97226       -0.09545
F         17.15580       -7.00006       -0.59003
F         17.02157       -5.48146        0.99399
F         14.72023       -4.45265       -0.08150
C         13.02278       -8.29118       -3.46817
O         12.62761       -8.20212       -4.79075
C         13.05522       -9.32876       -5.60990
C         12.68363       -9.04036       -7.05135
C         13.14305      -10.15802       -7.99746
C         12.82545       -9.86219       -9.46767
C         13.30165      -10.96240      -10.42096
C         13.01569      -10.66258      -11.89677
C         13.48612      -11.77506      -12.83664
H          0.66184        1.46955        0.16159
H          0.67522       -0.22956        0.66898
H          0.38640        0.18600       -1.03022
H          3.02657        0.68965        0.49381
H          2.74392        1.11886       -1.19013
H          2.40260       -1.31192       -1.75517
H          2.66546       -1.74263       -0.06682
H          4.99233       -0.75911       -0.18974
H          4.73327       -0.37558       -1.88979
H          4.42190       -2.82448       -2.39735
H          4.64372       -3.20751       -0.69150
H          6.96558       -2.20272       -0.78378
H          6.75033       -1.88810       -2.50394
H          6.47141       -4.35821       -2.92294
H          6.65016       -4.67138       -1.19694
H          8.96359       -3.62906       -1.27466
H          8.78921       -3.41370       -3.01606
H          8.53045       -5.92421       -3.27986
H          8.71967       -6.10856       -1.53378
H         10.99802       -4.98326       -1.71108
H         10.81825       -4.96394       -3.47291
H         10.63678       -7.46445       -3.52031
H         10.84588       -7.52916       -1.74582
H         12.79242       -6.27413       -3.55464
H         13.45816       -7.58853       -1.01351
H         12.73546       -5.96439       -1.00388
H         14.56743       -5.17098       -2.60010
H         15.39353       -6.72971       -2.38924
H         12.53920       -9.11087       -2.90265
H         14.12008       -8.36358       -3.35246
H         12.56337      -10.24470       -5.23735
H         14.14785       -9.45032       -5.49618
H         13.14268       -8.08441       -7.35065
H         11.59229       -8.90794       -7.12322
H         12.66946      -11.11063       -7.70404
H         14.23063      -10.31002       -7.88594
H         13.29128       -8.90301       -9.75338
H         11.73742       -9.71841       -9.58578
H         12.82351      -11.91846      -10.14433
H         14.38671      -11.11779      -10.28600
H         13.50301       -9.71268      -12.17460
H         11.93342      -10.49752      -12.03131
H         14.57120      -11.93639      -12.75462
H         13.26563      -11.53504      -13.88563
H         12.99168      -12.73009      -12.60418
