123

C         19.74243       -8.85090       -3.16194
C         18.80454       -7.79884       -2.56438
C         19.25500       -7.29589       -1.18798
C         18.32772       -6.23699       -0.58260
C         18.79520       -5.71683        0.78058
C         17.87182       -4.65463        1.38592
C         18.37284       -4.09654        2.72149
C         17.46226       -3.02391        3.32799
C         18.03280       -2.39217        4.60188
C         17.14644       -1.29987        5.20887
C         17.77659       -0.61616        6.42625
C         16.92918        0.51574        7.01452
C         17.60020        1.21839        8.19827
C         16.77175        2.36069        8.79275
C         17.41647        3.00192       10.02659
C         16.65397        4.22677       10.55410
C         16.97840        4.58854       12.00861
C         18.46621        4.97936       12.23620
C         18.82596        4.98823       13.69182
C         18.63579        6.15268       14.43504
C         18.88281        6.17850       15.80163
C         19.33628        5.01987       16.42384
C         19.54303        3.85583       15.69185
N         19.29436        3.86301       14.33628
C         19.45331        2.59839       13.59770
C         18.19693        1.69633       13.74194
O         17.16589        2.10944       14.26568
N         18.38092        0.46985       13.20987
C         17.31863       -0.52882       13.07765
C         16.79405       -0.60511       11.63947
C         15.75541       -1.70583       11.40975
C         15.26135       -1.73756        9.96000
C         20.09253        2.62852       16.35738
C         21.62946        2.51491       16.20072
C         22.15688        1.20639       16.81197
S         23.67652        0.60463       16.03425
C         23.04522       -0.22021       14.57208
S         21.39392       -0.41263       14.29804
N         24.00465       -0.69476       13.75476
C         25.44341       -0.61027       14.08646
C         25.95016       -1.70439       15.03984
C         25.84277       -3.13985       14.51334
C         26.42359       -4.16343       15.49240
C         23.64165       -1.36301       12.48645
C         23.31184       -0.39579       11.34142
C         24.43834        0.56275       10.94128
C         24.05723        1.46000        9.76122
H         19.39358       -9.19214       -4.14640
H         19.81705       -9.73532       -2.51141
H         20.75949       -8.45102       -3.29100
H         17.78621       -8.21556       -2.48321
H         18.72458       -6.94152       -3.25446
H         20.27600       -6.88185       -1.26962
H         19.33355       -8.15291       -0.49535
H         17.30979       -6.65446       -0.48558
H         18.23836       -5.38810       -1.28345
H         19.81214       -5.29766        0.67855
H         18.88906       -6.56346        1.48348
H         16.86172       -5.08032        1.52022
H         17.75419       -3.82350        0.66815
H         19.38300       -3.67288        2.57759
H         18.49508       -4.92387        3.44304
H         16.47062       -3.45963        3.54207
H         17.28720       -2.23073        2.57963
H         19.02572       -1.96455        4.37511
H         18.21077       -3.18024        5.35517
H         16.16893       -1.72900        5.49014
H         16.93044       -0.53848        4.43909
H         18.76607       -0.21625        6.14152
H         17.97276       -1.37085        7.20937
H         15.95042        0.11655        7.33254
H         16.71090        1.25633        6.22549
H         18.58241        1.61047        7.87916
H         17.81481        0.47429        8.98479
H         15.76998        1.98636        9.06710
H         16.60394        3.13191        8.02147
H         18.45701        3.27764        9.77915
H         17.48227        2.24167       10.82434
H         15.57204        4.02394       10.50668
H         16.82772        5.09022        9.89064
H         16.72252        3.74138       12.66018
H         16.35089        5.42951       12.34105
H         18.64127        5.99231       11.84712
H         19.12449        4.31899       11.65873
H         18.27690        7.03800       13.91276
H         18.72230        7.09070       16.37651
H         19.53656        4.99708       17.49379
H         20.34158        2.05926       13.95437
H         19.61310        2.82178       12.54031
H         19.31550        0.21827       12.88883
H         16.52019       -0.24761       13.77711
H         17.72430       -1.49959       13.40100
H         17.64681       -0.76088       10.95668
H         16.36041        0.37249       11.37384
H         14.90200       -1.55664       12.09142
H         16.19067       -2.68367       11.67560
H         14.78847       -0.78490        9.67850
H         14.52074       -2.53350        9.80694
H         16.09012       -1.91384        9.25818
H         19.61930        1.71436       15.97356
H         19.83227        2.68902       17.42281
H         22.11864        3.38308       16.66587
H         21.89762        2.54452       15.13549
H         21.41740        0.39804       16.71967
H         22.42200        1.32479       17.87195
H         25.63909        0.38644       14.51160
H         25.98740       -0.65732       13.13423
H         25.42405       -1.62344       16.00417
H         27.00645       -1.46639       15.25092
H         26.36510       -3.21898       13.54440
H         24.78636       -3.38679       14.31812
H         27.48865       -3.97081       15.68771
H         26.33741       -5.18518       15.09945
H         25.89804       -4.13330       16.45826
H         22.77979       -2.01346       12.68613
H         24.49416       -1.99819       12.21396
H         22.41014        0.17765       11.60940
H         23.03138       -1.01920       10.47573
H         25.34339       -0.01426       10.68488
H         24.71034        1.19504       11.80301
H         23.81685        0.86617        8.86743
H         24.87493        2.14301        9.49569
H         23.17396        2.07358        9.99577
