58

N          1.08898        0.59995        0.27795
C          2.50617        0.41421       -0.03358
C          3.29795        1.67021        0.34657
C          4.80216        1.51446        0.11189
C          5.58853        2.78694        0.50987
C          7.04893        2.66025        0.26921
N          7.97790        2.16284        1.10575
C          9.22618        2.09478        0.49726
C          9.05551        2.59007       -0.77575
N          7.70941        2.91655       -0.87482
C         10.04143        2.85213       -1.86824
C          9.41111        3.08469       -3.24819
C         10.45874        3.33153       -4.34978
C          9.81533        3.58799       -5.69348
C          9.45362        4.88785       -6.07732
C          8.82289        5.12144       -7.30141
C          8.54405        4.05512       -8.16056
C          8.90064        2.75588       -7.78982
C          9.53105        2.52632       -6.56487
C         10.46117        1.69723        1.22064
C         11.29842        2.93954        1.65246
O         10.94641        4.04864        1.27611
C         12.50731        2.72034        2.48463
C         13.30867        3.84085        2.78038
C         14.45027        3.69947        3.56177
C         14.80583        2.44088        4.06256
C         14.01840        1.32182        3.77526
C         12.87609        1.45786        2.98767
H          0.57984       -0.27954        0.19679
H          0.65144        1.25179       -0.37453
H          2.71318        0.16148       -1.09478
H          2.86969       -0.43611        0.56539
H          3.09464        1.90180        1.40410
H          2.92112        2.52873       -0.23645
H          4.99990        1.28573       -0.94826
H          5.18705        0.65850        0.69032
H          5.42187        3.01780        1.57319
H          5.21336        3.65452       -0.05445
H          7.77986        1.88192        2.06197
H          7.27296        3.29589       -1.71117
H         10.74425        2.00457       -1.91311
H         10.64548        3.72875       -1.57805
H          8.74444        3.96499       -3.21927
H          8.78964        2.22027       -3.53598
H         11.12723        2.45844       -4.41477
H         11.08658        4.19067       -4.06467
H          9.68106        5.72931       -5.41803
H          8.55812        6.13953       -7.58953
H          8.05948        4.23717       -9.12024
H          8.69707        1.92050       -8.46078
H          9.82023        1.50981       -6.28699
H         11.09221        1.06787        0.57288
H         10.21906        1.07697        2.09603
H         13.01336        4.81208        2.38324
H         15.06841        4.56959        3.78449
H         15.69913        2.33224        4.67850
H         14.29673        0.34292        4.16597
H         12.27845        0.57129        2.77440
