54

F         -3.40995        2.15968        0.90743
C         -3.12351        1.61813       -0.27677
C         -2.14732        2.07591       -1.07057
C         -1.23237        3.20886       -0.77792
C          0.22551        2.71229       -0.52242
C          1.11893        3.86951       -0.17316
C          1.04078        4.47657        1.12905
C          1.65127        5.70161        1.35375
C          2.34286        6.38480        0.33585
C          2.48808        5.75519       -0.94798
C          1.92513        4.45185       -1.15131
C          2.28077        3.73667       -2.41619
O          2.19321        4.22133       -3.52637
C          2.96759        2.31209       -2.31773
C          4.50226        2.29057       -2.67238
C          5.44881        3.12704       -1.73426
C          5.26059        2.90546       -0.19625
O          4.61947        3.67538        0.47454
O          5.85699        1.81808        0.30247
F          6.73337        2.80478       -2.07827
F          5.25923        4.44820       -2.00640
F          4.90581        0.98970       -2.57721
F          4.69224        2.71125       -3.94113
F          2.87731        1.76027       -1.06819
F          2.34430        1.48847       -3.19612
C          3.16958        6.46315       -1.94714
N          3.67345        7.67882       -1.68954
C          3.57574        8.30382       -0.47328
C          2.91604        7.66771        0.54192
C          0.40686        3.78840        2.29811
C          1.43207        2.88588        3.09977
N          1.68055        1.67305        2.31360
N          2.66692        3.64089        3.30721
N          0.75883        2.56386        4.35090
F         -1.92930        1.43307       -2.24776
F         -3.91485        0.60067       -0.56072
H         -1.61655        3.76197        0.08924
H         -1.23432        3.90584       -1.63192
H          0.55733        2.21175       -1.43970
H          0.23748        1.96123        0.27392
H          1.59352        6.15043        2.34528
H          6.37828        1.34904       -0.37863
H          3.30192        6.08568       -2.95813
H          4.15329        8.16508       -2.44580
H          4.03278        9.28689       -0.39474
H          2.82925        8.15479        1.51237
H         -0.43498        3.14640        2.01756
H          0.02813        4.54223        2.99998
H          0.91357        1.00835        2.44295
H          2.53891        1.21800        2.62663
H          3.26985        3.62208        2.47943
H          3.19019        3.25077        4.09117
H          1.27077        1.84641        4.86676
H          0.66473        3.38463        4.95186
