60

C          3.22564       -0.03601       -3.51318
C          4.03453        0.12008       -2.22290
C          4.65515       -1.19216       -1.72867
C          5.47030       -1.02116       -0.44153
C          6.05607       -2.33852        0.08798
C          6.87257       -2.09909        1.34804
O          7.36411       -3.36555        1.93224
C          8.51482       -3.83894        1.48122
O          9.21660       -3.28511        0.63177
C          8.88311       -5.17510        2.11817
C         10.40491       -5.37681        2.25601
C         11.05130       -4.38620        3.22578
C         12.58136       -4.45026        3.23214
C         13.17214       -4.19774        1.82850
C         12.64773       -5.17248        0.75086
N         11.03488       -5.22145        0.89034
N         13.22166       -6.45383        0.62757
C         13.37315       -7.35974        1.76141
C         12.95094       -7.12984       -0.63710
C         14.72410       -4.07071        1.76987
C         15.20133       -3.40212        0.46178
O         14.88200       -4.09762       -0.74906
C         15.28844       -3.25354        2.94294
H          2.78964        0.92155       -3.82799
H          2.39866       -0.75020       -3.38445
H          3.85362       -0.40137       -4.33924
H          3.38826        0.53306       -1.43002
H          4.83519        0.86350       -2.37721
H          5.30070       -1.61404       -2.51898
H          3.85515       -1.93446       -1.56086
H          4.83160       -0.56709        0.33566
H          6.28812       -0.30244       -0.62330
H          6.69369       -2.79887       -0.68331
H          5.24486       -3.04944        0.31080
H          6.26437       -1.67356        2.15518
H          7.74041       -1.45461        1.15798
H          8.43700       -5.96895        1.49479
H          8.40735       -5.25871        3.10357
H         10.60233       -6.40572        2.58842
H         10.65559       -4.59338        4.23029
H         10.73214       -3.36253        2.96884
H         12.91868       -5.40689        3.65604
H         12.94671       -3.67298        3.91425
H         12.77744       -3.21032        1.51738
H         12.74963       -4.69022       -0.22841
H         10.72470       -5.98729        0.28085
H         10.59732       -4.34270        0.50586
H         13.83977       -6.85277        2.61157
H         14.04023       -8.17853        1.46269
H         12.42370       -7.81924        2.10156
H         13.02641       -6.41131       -1.46401
H         11.95460       -7.62052       -0.68288
H         13.69647       -7.91971       -0.79839
H         15.16300       -5.08222        1.81009
H         16.28891       -3.23335        0.52879
H         14.72664       -2.41187        0.36313
H         15.48761       -4.85023       -0.83367
H         14.81823       -2.26022        3.01168
H         16.36654       -3.09433        2.80750
H         15.15836       -3.75917        3.90701
