30

C          0.52399        1.26726        1.59138
C          1.97970        1.74862        1.64241
C          2.91783        0.65638        1.14192
N          4.37461        1.11174        1.04410
C          5.17684        0.24769        0.14295
C          5.66044        0.79760       -1.03744
C          6.40299       -0.04183       -1.87701
N          6.65900       -1.32475       -1.59628
C          6.17956       -1.82371       -0.44986
C          5.42802       -1.08103        0.46779
C          5.03366        1.32883        2.40731
C          6.42992        1.86799        2.26663
C          6.75002        3.07328        1.78121
Br         5.43381        4.28930        1.15220
Br         7.82662        0.72600        2.84970
H         -0.14819        2.05424        1.95283
H          0.36978        0.38245        2.22406
H          0.21993        1.01150        0.56731
H          2.23113        2.03880        2.67354
H          2.09674        2.64906        1.01674
H          2.64945        0.33997        0.12484
H          2.90605       -0.23212        1.78813
H          4.36244        2.05600        0.61197
H          5.48098        1.84098       -1.30478
H          6.80853        0.34239       -2.81612
H          6.40434       -2.87328       -0.24608
H          5.07100       -1.54482        1.38714
H          5.02218        0.37019        2.93464
H          4.39604        2.04296        2.94540
H          7.76466        3.45342        1.68930
