34

C          2.01637        0.45504       -0.85032
C          2.25824        1.05602        0.51858
O          3.11015        0.16930        1.34633
C          4.42174        0.29483        1.22566
O          4.98707        1.10908        0.49741
C          5.14303       -0.74469        2.08408
C          6.59573       -0.47332        2.39153
N          7.21780        0.47198        1.65461
C          8.46635        0.92878        1.88597
C          9.18635        0.38826        2.93020
C          8.63459       -0.64481        3.71583
C          7.29477       -1.10510        3.45850
N          6.67495       -2.07816        4.21115
C          6.85494       -2.18024        5.65864
C          6.04040       -3.24519        3.59583
C          9.47121       -1.24950        4.68650
C         10.26798       -1.74281        5.45717
H          1.31498        1.09881       -1.39867
H          1.56790       -0.54373       -0.77358
H          2.94297        0.39453       -1.43484
H          1.33799        1.12930        1.10845
H          2.74594        2.03663        0.46471
H          5.02453       -1.70093        1.54656
H          4.59825       -0.88134        3.02916
H          6.58386        0.91982        0.94259
H          8.83472        1.71149        1.22699
H         10.20202        0.72644        3.12560
H          7.20157       -1.22730        6.07055
H          7.56382       -2.97293        5.94138
H          5.87712       -2.41120        6.10783
H          6.19243       -3.24763        2.51156
H          4.96341       -3.29988        3.81963
H          6.51562       -4.15779        3.98922
H         10.96711       -2.19212        6.13406
