81

C          0.54898       -0.95680        0.38289
C          2.07839       -1.01404        0.34531
C          2.65185       -0.93814       -1.07385
C          4.18052       -1.02116       -1.13230
C          4.73942       -0.94011       -2.55634
C          6.26537       -1.04933       -2.63400
C          6.81000       -0.93014       -4.06076
C          8.33506       -1.03745       -4.15511
C          8.86868       -0.84465       -5.57790
C         10.39506       -0.91703       -5.68425
C         10.91886       -0.60186       -7.08843
C         12.44594       -0.64263       -7.20155
C         12.95907       -0.24528       -8.58874
C         14.48711       -0.25277       -8.70317
C         14.97945        0.19367      -10.08426
C         16.50168        0.17269      -10.24757
C         16.99628        0.61108      -11.64117
C         18.30706        1.28069      -11.40504
N         18.44517        1.54504      -10.11183
C         17.25647        1.12791       -9.30484
C         19.56429        2.27658       -9.52298
O         20.57194        2.53161      -10.13613
O         19.25123        2.56254       -8.26953
C         20.25389        3.33191       -7.49526
C         19.97925        4.82262       -7.58640
C         20.93720        5.61967       -6.68570
C         20.66012        7.12474       -6.72138
C         19.28677        1.50813      -12.46678
C         20.33834        0.29249      -12.52567
N         21.13654        0.41479      -13.70430
H          0.16675       -1.01236        1.41150
H          0.10496       -1.79047       -0.18174
H          0.17295       -0.02269       -0.06101
H          2.42435       -1.94460        0.82671
H          2.49423       -0.18995        0.94974
H          2.31884        0.00107       -1.55056
H          2.22074       -1.75226       -1.68340
H          4.51321       -1.96320       -0.66149
H          4.61561       -0.20980       -0.52212
H          4.41938        0.01090       -3.01809
H          4.28667       -1.73846       -3.17064
H          6.58655       -2.01133       -2.19700
H          6.72132       -0.26522       -2.00380
H          6.48872        0.03548       -4.49014
H          6.34914       -1.70796       -4.69479
H          8.66025       -2.01900       -3.76749
H          8.79474       -0.28393       -3.49104
H          8.52723        0.13421       -5.95933
H          8.41854       -1.60004       -6.24575
H         10.74065       -1.91925       -5.37569
H         10.84283       -0.20874       -4.96457
H         10.56052        0.39842       -7.38974
H         10.47914       -1.30921       -7.81326
H         12.80805       -1.65477       -6.94990
H         12.88402        0.03251       -6.44511
H         12.58213        0.76173       -8.84001
H         12.53435       -0.92452       -9.34812
H         14.86988       -1.26527       -8.48662
H         14.90662        0.40523       -7.92148
H         14.61169        1.21322      -10.29909
H         14.53866       -0.45762      -10.85661
H         16.86933       -0.85010      -10.06047
H         16.32399        1.36268      -12.10108
H         17.08318       -0.19955      -12.37865
H         16.67638        2.03028       -9.05571
H         17.59442        0.66925       -8.37081
H         21.24867        3.06314       -7.87280
H         20.12517        2.94962       -6.47544
H         18.93685        5.01688       -7.28678
H         20.08781        5.15482       -8.63150
H         21.97708        5.42617       -6.99588
H         20.85216        5.25352       -5.64918
H         20.76657        7.52874       -7.73867
H         21.36061        7.66786       -6.07406
H         19.64162        7.35310       -6.37525
H         19.86974        2.42302      -12.32149
H         18.77276        1.52403      -13.43461
H         19.77457       -0.64989      -12.55019
H         20.90925        0.32871      -11.58637
H         21.24534       -0.43798      -14.24160
H         22.02613        0.88638      -13.57542
