84

C          7.32800       -0.03987        1.96193
O          8.29344       -0.18522        2.99468
C          7.69302       -0.40971        4.26270
C          8.77256       -0.64764        5.31114
O          9.79190        0.34901        5.37691
C          9.34048        1.67173        5.58688
C         10.54515        2.59585        5.62689
O         11.42182        2.52652        4.48327
C         10.82628        2.36399        3.18862
C         10.23413        3.67356        2.61670
C         10.93412        4.91657        3.14814
C         10.61125        6.29081        2.53568
C         11.86143        7.16467        2.86446
C         12.84858        6.24000        3.58764
N         12.46043        4.84941        3.12073
C         13.10495        4.49599        1.80215
C         14.55897        4.07258        1.99401
C         15.29521        4.06623        0.64345
S         17.08254        4.31389        0.77961
C         17.18493        6.09709        0.99136
S         15.82784        7.08081        1.10157
N         18.45288        6.55483        1.04890
C         18.73128        7.98834        1.25769
C         18.87849        8.75953       -0.05441
C         19.63831        5.69241        0.89675
C         20.20148        5.18992        2.22845
C          9.26417        6.85757        3.01246
C          9.13701        7.00052        4.53837
O         10.10492        6.77180        5.28343
N          7.93016        7.38577        5.03536
C          7.79209        7.53079        6.49461
C          8.11376        8.94364        6.98448
C          6.74147        7.65695        4.21887
C          5.82051        6.44239        4.07058
H          7.87595        0.12561        1.02652
H          6.65924        0.82142        2.14958
H          6.70682       -0.94721        1.85761
H          7.04320       -1.30699        4.24151
H          7.04210        0.44690        4.53276
H          9.31231       -1.57683        5.08566
H          8.27478       -0.76486        6.29411
H          8.80558        1.77914        6.55277
H          8.63450        1.98817        4.79474
H         11.19198        2.33302        6.47488
H         10.17906        3.62935        5.78105
H         10.08030        1.55548        3.18527
H         11.66111        2.01871        2.56019
H          9.17667        3.76960        2.90811
H         10.24112        3.62903        1.51578
H         10.73373        5.00080        4.22301
H         10.53359        6.18660        1.44160
H         11.61242        8.00825        3.51619
H         12.30510        7.57014        1.94607
H         12.69454        6.26282        4.67241
H         13.90038        6.42981        3.34452
H         12.70626        4.12579        3.81937
H         13.05725        5.39097        1.16827
H         12.50778        3.70561        1.33314
H         14.61835        3.08344        2.47320
H         15.06084        4.79478        2.65147
H         14.92016        4.86925       -0.00750
H         15.19111        3.10536        0.11981
H         19.65498        8.04857        1.85181
H         17.90988        8.39924        1.85705
H         19.68749        8.35489       -0.67799
H         19.11655        9.80976        0.16106
H         17.94451        8.73039       -0.62918
H         20.39324        6.28476        0.35978
H         19.38008        4.85346        0.23527
H         20.49349        6.02377        2.88088
H         21.09558        4.57917        2.04520
H         19.46895        4.57274        2.76384
H          8.44502        6.23432        2.62219
H          9.12185        7.84682        2.54874
H          8.46731        6.80431        6.96270
H          6.76105        7.25274        6.75677
H          9.15813        9.20010        6.76546
H          7.96717        9.00758        8.07115
H          7.46389        9.69509        6.51483
H          7.05088        8.03080        3.23492
H          6.19909        8.48526        4.69759
H          6.33216        5.61203        3.56335
H          4.93201        6.70485        3.48082
H          5.47905        6.07894        5.04916
