51

C         10.19151       -2.02496        1.30896
C          8.81916       -1.60639        0.77590
C          8.90705       -0.57670       -0.35692
C          7.54056       -0.16030       -0.91239
C          7.65897        0.85871       -2.04892
C          6.28442        1.25164       -2.65132
C          6.46380        2.21825       -3.77786
C          6.34034        3.60498       -3.60401
C          6.59747        4.46446       -4.65520
N          6.97510        4.00026       -5.87069
C          7.11025        2.65393       -6.09597
C          6.85228        1.77660       -5.05514
C          7.58488        2.15921       -7.45051
O          8.87342        2.63583       -7.78617
C          9.94492        2.03755       -7.01935
C         11.26505        2.56303       -7.55322
C         12.47174        1.98287       -6.80211
C         13.80760        2.50363       -7.33850
C          7.22823        4.96798       -7.00153
C          7.23734        6.35408       -6.59018
C          7.25482        7.52991       -6.31089
H         10.09773       -2.76200        2.11739
H         10.74601       -1.16321        1.70858
H         10.80724       -2.47762        0.51775
H          8.21223       -1.19141        1.59773
H          8.27465       -2.49550        0.41599
H          9.52246       -0.98959       -1.17572
H          9.44421        0.31773        0.00442
H          6.92205        0.26125       -0.10210
H          7.00257       -1.05258       -1.27589
H          8.29719        0.44771       -2.84949
H          8.16584        1.76940       -1.68907
H          5.64891        1.69289       -1.87028
H          5.77851        0.34477       -3.01703
H          6.04411        4.02777       -2.64444
H          6.51904        5.54785       -4.57418
H          6.97308        0.71033       -5.25037
H          6.90491        2.49651       -8.24861
H          7.55150        1.05597       -7.43555
H          9.88165        0.93776       -7.11981
H          9.82875        2.28714       -5.94740
H         11.27030        3.66282       -7.47642
H         11.33571        2.32163       -8.62548
H         12.45141        0.88257       -6.87185
H         12.38683        2.22284       -5.72871
H         13.94000        2.24636       -8.39913
H         14.65168        2.07327       -6.78431
H         13.87527        3.59773       -7.25089
H          6.43984        4.79906       -7.75279
H          8.18841        4.67588       -7.45285
H          7.27962        8.57422       -6.07007
