52

F          6.69152       -8.03796       -0.95375
C          5.45656       -8.15400       -1.65433
C          4.39239       -7.38501       -0.89718
C          4.67117       -5.86164       -0.81869
C          4.44645       -5.25616        0.55511
C          4.50022       -3.73687        0.69914
O          4.56186       -3.56161        2.11638
C          5.53517       -4.42578        2.61523
N          5.50728       -5.66426        1.62076
N          6.84699       -5.98852        1.22641
C          5.23900       -4.83799        4.03915
C          6.29575       -5.75597        4.67030
C          5.94742       -6.20874        6.10428
C          4.75125       -7.18082        6.11264
C          4.20456       -7.54191        7.50895
C          2.95928       -8.38162        7.42493
C          2.86776       -9.71853        7.55297
C          4.03807      -10.62501        7.83245
C          1.53918      -10.41733        7.42789
C          7.19044       -6.81516        6.76967
H          5.22685       -9.22591       -1.71404
H          5.63070       -7.75690       -2.66507
H          4.30553       -7.82962        0.10823
H          3.42351       -7.57078       -1.38296
H          4.00595       -5.32307       -1.50898
H          5.69139       -5.63449       -1.16330
H          3.49501       -5.60373        0.98658
H          3.59437       -3.24133        0.33409
H          5.38165       -3.29745        0.19380
H          6.55968       -4.03187        2.48048
H          5.17277       -6.47759        2.15262
H          7.24586       -5.17363        0.75252
H          6.82085       -6.76955        0.55594
H          4.23304       -5.28899        4.05925
H          5.15904       -3.90349        4.61668
H          7.26366       -5.22946        4.67886
H          6.45751       -6.65829        4.05153
H          5.65943       -5.30726        6.67705
H          5.04044       -8.11386        5.59582
H          3.91460       -6.75754        5.53066
H          3.97877       -6.60912        8.05318
H          4.98101       -8.05556        8.09244
H          2.03497       -7.83163        7.21429
H          4.99423      -10.09419        7.90799
H          4.13545      -11.38372        7.03916
H          3.88404      -11.18139        8.77070
H          0.72371       -9.71272        7.22117
H          1.29323      -10.96358        8.35284
H          1.55988      -11.16957        6.62260
H          7.51093       -7.73115        6.24898
H          7.00091       -7.07925        7.81738
H          8.03309       -6.10977        6.75785
