99

C         14.57010      -10.71683        2.93933
C         14.11627       -9.31708        2.51912
C         14.66187       -8.88770        1.15329
C         14.20792       -7.48913        0.72379
C         14.75368       -7.05566       -0.64048
C         14.29056       -5.65968       -1.06986
C         14.83809       -5.22285       -2.43220
C         14.36895       -3.82978       -2.86588
C         14.91594       -3.40342       -4.23180
C         14.43450       -2.02250       -4.68937
C         14.96806       -1.62670       -6.07051
C         14.45333       -0.27048       -6.56279
C         14.95828        0.09478       -7.96511
C         14.39140        1.42445       -8.48032
C         14.88713        1.85709       -9.86529
C         14.34254        3.21182      -10.31897
C         14.81337        3.62139      -11.72131
C         14.47420        2.55734      -12.78157
C         14.99980        1.13602      -12.51278
N         14.49638        0.83188      -10.90195
N         16.31551        0.78980      -12.74435
C         17.46681        1.61924      -12.39837
C         16.62619       -0.63242      -12.87532
C         14.80242        2.97981      -14.21891
O         14.23931        2.00922      -15.07952
C         14.43348        2.29553      -16.47530
C         13.81808        1.17031      -17.29095
C         13.94984        1.38216      -18.80383
C         13.33823        0.23375      -19.61439
C         13.44023        0.42244      -21.13130
C         12.83322       -0.73903      -21.92537
C         12.91349       -0.56048      -23.44439
C         12.30242       -1.72689      -24.22795
C         12.37072       -1.53889      -25.74494
H         14.16381      -10.99555        3.92128
H         15.66685      -10.77670        3.00381
H         14.24068      -11.47644        2.21472
H         14.42983       -8.58321        3.28065
H         13.01408       -9.27778        2.49679
H         14.35103       -9.62323        0.39026
H         15.76551       -8.92343        1.17522
H         14.51669       -6.75530        1.48899
H         13.10434       -7.45617        0.70148
H         14.44951       -7.79186       -1.40531
H         15.85732       -7.08261       -0.61672
H         14.59146       -4.92416       -0.30335
H         13.18695       -5.63492       -1.09619
H         14.54025       -5.96081       -3.19792
H         15.94179       -5.24354       -2.40529
H         14.66781       -3.08924       -2.10360
H         13.26528       -3.80921       -2.89242
H         14.62702       -4.15515       -4.98756
H         16.01961       -3.41319       -4.20150
H         14.73522       -1.26240       -3.94779
H         13.33068       -2.00908       -4.70856
H         14.68831       -2.40706       -6.80060
H         16.07165       -1.61391       -6.04654
H         14.75129        0.52066       -5.85421
H         13.34974       -0.27799       -6.56642
H         14.68759       -0.73588       -8.64488
H         16.06113        0.14178       -7.95757
H         14.65676        2.22987       -7.77720
H         13.28715        1.38744       -8.48975
H         15.98877        1.87194       -9.87361
H         14.64517        3.96720       -9.58054
H         13.23874        3.17842      -10.28890
H         15.88742        3.85340      -11.69778
H         14.30993        4.55625      -12.00737
H         13.37433        2.44389      -12.76305
H         14.35514        0.41054      -13.02475
H         14.86810       -0.08855      -10.64130
H         13.47120        0.74234      -10.91289
H         17.23747        2.68108      -12.51154
H         18.28772        1.38050      -13.08809
H         17.83407        1.43864      -11.37152
H         15.77884       -1.16126      -13.33046
H         16.87178       -1.11210      -11.90861
H         17.49777       -0.75607      -13.53199
H         15.89647        3.05954      -14.37636
H         14.36704        3.98145      -14.40575
H         15.51661        2.38907      -16.68553
H         13.95956        3.26576      -16.71920
H         12.75399        1.07831      -17.01968
H         14.30103        0.22108      -17.00573
H         15.01453        1.49210      -19.07277
H         13.46205        2.33021      -19.08819
H         12.27690        0.11718      -19.33370
H         13.83232       -0.71242      -19.33168
H         14.49993        0.54587      -21.41536
H         12.93740        1.36287      -21.41692
H         11.77668       -0.86722      -21.63092
H         13.34183       -1.67754      -21.64240
H         13.96869       -0.43361      -23.74395
H         12.40321        0.37617      -23.73000
H         11.25153       -1.85802      -23.91936
H         12.81890       -2.66053      -23.94768
H         11.83079       -0.63289      -26.05797
H         11.92632       -2.39095      -26.27703
H         13.41114       -1.43810      -26.08762
