68

C          0.46466        2.99436        8.48796
C          1.99282        3.01269        8.56750
C          2.65656        1.84227        7.83330
C          4.18622        1.86701        7.90106
C          4.86350        0.71933        7.14428
C          6.39234        0.79502        7.17747
C          7.10410       -0.29752        6.37411
C          8.62420       -0.11699        6.37832
C          9.40059       -1.18931        5.60524
C         10.88319       -0.87999        5.46902
O         11.45750       -0.78267        6.78420
C         12.76767       -0.23942        6.80634
C         13.23024       -0.12666        8.26077
C         13.08053       -1.47706        9.01682
C         11.79239       -1.30518        9.80744
N         11.88805        0.10006       10.30246
C         12.45669        0.91768        9.15180
C         11.32592        1.70641        8.45405
C         10.29336        2.31525        9.40064
O         10.05190        1.75028       10.51051
N          9.61401        3.40927        9.03786
C          9.73748        4.05438        7.71903
C         10.72729        5.21954        7.70457
C          8.64263        3.99794        9.98878
C          7.23836        3.40841        9.86876
Br        11.56128       -2.51868       11.30278
H          0.02378        3.84477        9.02530
H          0.05208        2.07435        8.92770
H          0.11835        3.04558        7.44519
H          2.30749        3.00208        9.62528
H          2.37146        3.96158        8.14968
H          2.33937        1.84946        6.77571
H          2.28572        0.89040        8.25186
H          4.50483        1.84798        8.95879
H          4.54746        2.82923        7.49400
H          4.52226        0.72450        6.09461
H          4.53293       -0.24619        7.56431
H          6.73781        0.75286        8.22559
H          6.71030        1.78265        6.79454
H          6.73630       -0.29246        5.33405
H          6.84619       -1.28900        6.78363
H          8.97100       -0.09925        7.42606
H          8.86551        0.87689        5.95623
H          8.99075       -1.28965        4.58734
H          9.27397       -2.17288        6.08585
H         11.03034        0.08248        4.94076
H         11.40893       -1.66373        4.89495
H         12.79135        0.74675        6.30178
H         13.47484       -0.89287        6.26107
H         14.28990        0.16151        8.23260
H         13.91951       -1.64191        9.70860
H         13.02504       -2.33549        8.33845
H         10.89912       -1.39380        9.18002
H         12.52309        0.12067       11.10910
H         10.94010        0.67002       10.57331
H         13.16077        1.62874        9.60306
H         10.78351        1.03278        7.77199
H         11.79641        2.47783        7.83468
H          8.73009        4.40188        7.44883
H          9.99980        3.29507        6.97178
H         10.44834        5.99256        8.43254
H         10.74423        5.68569        6.71079
H         11.74724        4.88649        7.94306
H          8.63215        5.07885        9.79170
H          9.03910        3.84615       10.99970
H          6.82418        3.53004        8.85928
H          6.56601        3.92124       10.56909
H          7.23683        2.34016       10.11730
