52

C          0.45504        1.08580        0.47040
C          1.81695        1.15457       -0.22442
C          2.94754        1.59745        0.71302
C          4.31287        1.66284        0.01825
C          5.42396        2.11164        0.97706
N          6.75848        2.25285        0.34654
C          7.55993        1.18215        0.25685
N          7.14362       -0.06122        0.63615
C          8.09327       -1.07847        0.15931
C          9.35981       -0.24282       -0.06038
N          8.84169        1.13542       -0.17975
C          9.81166        2.23471       -0.21428
C         10.27638        2.61101       -1.63853
C         10.86762        4.00274       -1.66030
C         12.09341        4.28132       -1.03701
C         12.59725        5.58392       -1.00700
C         11.88292        6.62921       -1.59889
C         10.66817        6.36310       -2.23602
C         10.16525        5.05777       -2.26556
C          7.00963        3.53007       -0.34653
C          7.42644        4.69221        0.57903
O          7.65762        5.86282       -0.17661
H         -0.32916        0.76238       -0.22642
H          0.15951        2.06651        0.87031
H          0.46754        0.37417        1.30869
H          1.76226        1.85073       -1.07773
H          2.06505        0.16830       -0.65175
H          3.00225        0.90702        1.57274
H          2.70641        2.58795        1.13551
H          4.26250        2.35966       -0.83406
H          4.55092        0.67673       -0.41968
H          5.51809        1.43220        1.83666
H          5.17513        3.09559        1.39742
H          6.15074       -0.26992        0.60319
H          7.73556       -1.52955       -0.77927
H          8.23240       -1.87005        0.90419
H          9.91011       -0.53382       -0.96355
H         10.04566       -0.29588        0.80139
H         10.67231        1.92799        0.40067
H          9.38219        3.10562        0.28757
H          9.41354        2.56634       -2.31965
H         11.00198        1.86762       -2.00325
H         12.67038        3.47302       -0.58172
H         13.55555        5.78172       -0.52558
H         12.27843        7.64485       -1.57849
H         10.11638        7.16776       -2.72358
H          9.23334        4.85137       -2.79834
H          6.08100        3.81137       -0.86435
H          7.75851        3.37434       -1.12960
H          8.30058        4.40973        1.19434
H          6.61297        4.92866        1.28084
H          8.52968        5.80051       -0.60872
