80

C          7.92554       -0.65797        5.75972
C          6.79137       -0.91183        4.76442
C          6.74788        0.11656        3.62618
C          5.60441       -0.14606        2.64083
C          5.47677        0.85325        1.48520
N          6.63595        0.80721        0.56924
N          6.77680       -0.12910       -0.33746
N          7.94076        0.04434       -0.94047
C          8.52692        1.11738       -0.39332
N          7.72929        1.60712        0.58212
C          7.88989        2.80120        1.42838
C          7.42491        4.07026        0.69743
O          6.06542        3.84917        0.32125
C          5.70007        4.40274       -0.97242
C          6.34305        3.64974       -2.10978
C          5.86093        2.38291       -2.47627
C          6.48629        1.64683       -3.48304
C          7.60471        2.17076       -4.14060
C          8.08324        3.43836       -3.79916
C          7.45274        4.17401       -2.79015
C          7.57531        5.29074        1.60231
C          9.85062        1.67181       -0.80460
O         10.61713        1.88213        0.36257
C         11.97119        2.30941        0.08455
C         12.78336        2.16726        1.35887
C         14.25272        2.56839        1.17305
C         15.11824        2.21961        2.38957
C         16.59555        2.58590        2.21572
C         17.48317        2.09959        3.36642
C         18.96583        2.43921        3.18485
C         19.86284        1.88436        4.29612
C         21.34694        2.22305        4.11796
C         22.24013        1.63130        5.21142
H          7.92997       -1.41532        6.55399
H          7.82365        0.32536        6.24230
H          8.90866       -0.68951        5.26708
H          5.82393       -0.90542        5.29281
H          6.89555       -1.92085        4.33240
H          7.71970        0.09830        3.10035
H          6.64218        1.12796        4.05828
H          4.63869       -0.11319        3.17025
H          5.68778       -1.15974        2.21850
H          5.36264        1.89540        1.80496
H          4.62322        0.60663        0.84152
H          8.95711        2.84616        1.67797
H          7.31635        2.64060        2.34801
H          8.04828        4.19126       -0.20571
H          5.95741        5.47431       -1.00967
H          4.60633        4.31552       -1.00075
H          4.97965        1.97631       -1.97476
H          6.10085        0.66532       -3.76009
H          8.08926        1.59729       -4.93152
H          8.93831        3.86133       -4.32806
H          7.81174        5.17640       -2.54502
H          6.97534        5.17622        2.51551
H          7.22571        6.18930        1.07856
H          8.62463        5.45497        1.88513
H          9.68835        2.60327       -1.38579
H         10.31052        0.93426       -1.48636
H         11.95718        3.35302       -0.28229
H         12.38942        1.67355       -0.71730
H         12.72469        1.11692        1.68777
H         12.32296        2.77478        2.15534
H         14.32218        3.64901        0.96154
H         14.66306        2.05704        0.28486
H         15.03516        1.13604        2.58539
H         14.71562        2.72068        3.28708
H         16.69465        3.68022        2.10823
H         16.96618        2.15503        1.26881
H         17.37160        1.00548        3.46856
H         17.12196        2.52886        4.31748
H         19.08662        3.53516        3.12720
H         19.31110        2.04738        2.21178
H         19.74398        0.78717        4.34374
H         19.51668        2.26626        5.27300
H         21.46839        3.31913        4.09379
H         21.68438        1.86198        3.13147
H         21.94783        1.99427        6.20816
H         23.29501        1.89691        5.05814
H         22.17427        0.53296        5.22860
