78

C          2.68530       -1.12459       -1.95597
C          3.49772       -0.75695       -1.13933
C          4.48310       -0.28484       -0.17788
C          4.99567        1.12789       -0.53051
C          6.07448        1.58628        0.45492
N          6.53013        2.96148        0.15563
N          5.78652        3.92689        0.70825
C          6.14714        5.17824        0.41460
C          7.21648        5.56801       -0.40795
C          7.96850        4.49438       -0.97916
C          7.57120        3.19010       -0.65689
C          9.09381        4.67000       -1.85951
N          9.67230        5.77435       -2.27316
N         10.69884        5.41829       -3.10526
C         10.69583        4.09769       -3.15929
O          9.70487        3.54482       -2.39077
S         11.78888        3.14200       -4.08201
C         11.20805        1.43413       -3.73944
C         12.06851        0.47217       -4.55612
C          7.52570        7.01145       -0.65857
C          6.57108        8.04089       -0.04918
C          6.98191        9.47867       -0.38858
C          5.98525       10.52117        0.12730
C          6.39049       11.96582       -0.18328
C          5.33763       12.99519        0.24099
C          5.74766       14.44459       -0.03919
C          4.65040       15.46337        0.28595
C          5.06832       16.91635        0.03691
C          3.92657       17.91985        0.23257
C          4.35848       19.37671        0.04130
C          3.18029       20.35313        0.14321
N          3.57425       21.75091       -0.00609
C          3.87726       22.61020        1.02377
C          4.29384       23.82087        0.47855
C          4.24671       23.68451       -0.92789
C          3.80268       22.39446       -1.20093
H          1.95950       -1.46351       -2.66544
H          5.32668       -0.99561       -0.14163
H          4.03943       -0.27994        0.83195
H          4.15770        1.83929       -0.51147
H          5.39940        1.12557       -1.55457
H          6.95753        0.93326        0.42441
H          5.69289        1.61681        1.48286
H          5.51551        5.92831        0.88889
H          8.08384        2.31188       -1.04414
H         10.15000        1.36836       -4.02418
H         11.30622        1.24777       -2.66216
H         11.97247        0.65802       -5.63387
H         11.74247       -0.55792       -4.36128
H         13.12976        0.54520       -4.28406
H          7.59926        7.15752       -1.75097
H          8.56249        7.19908       -0.32350
H          6.53456        7.93055        1.04809
H          5.54531        7.86576       -0.41711
H          7.08373        9.58052       -1.48275
H          7.98343        9.68101        0.02825
H          5.86034       10.40337        1.21801
H          4.99292       10.31983       -0.31349
H          6.57991       12.06677       -1.26626
H          7.35005       12.19189        0.31337
H          5.12116       12.87813        1.31737
H          4.38966       12.77758       -0.28206
H          6.02963       14.54486       -1.10204
H          6.65781       14.68525        0.53767
H          4.33954       15.34782        1.33910
H          3.75540       15.23323       -0.31884
H          5.46123       17.01314       -0.99033
H          5.90661       17.17679        0.70613
H          3.49606       17.79432        1.24168
H          3.11218       17.68107       -0.47416
H          4.84010       19.50030       -0.94259
H          5.11623       19.65047        0.79326
H          2.67909       20.25296        1.11731
H          2.42673       20.12715       -0.62687
H          3.76560       22.29853        2.05753
H          4.58431       24.70103        1.04253
H          4.49453       24.43789       -1.66841
H          3.62633       21.89033       -2.14597
