51

C          8.38881       -9.55917        4.68768
C          7.37686       -8.89885        3.74871
C          7.92291       -7.64675        3.05123
C          6.91345       -7.00054        2.09754
C          7.44819       -5.74952        1.38796
C          6.44249       -5.17027        0.38222
C          6.88280       -3.87488       -0.29243
N          8.21512       -4.00873       -0.99700
C          8.76198       -2.70674       -1.56933
C          9.45865       -3.08270       -2.88629
C          9.47587       -4.64274       -2.98081
C          8.24767       -5.01565       -2.12231
C          9.30599       -5.04395       -4.47912
C          9.32700       -6.51907       -4.90864
C          8.25696       -7.45547       -4.37476
Br         6.40712       -6.81792       -4.59698
Br         9.28603       -6.51487       -6.88469
C         10.74514       -5.24627       -2.31902
C         12.16292       -5.04945       -2.93205
F         12.23228       -5.61735       -4.16682
F         12.44795       -3.71983       -3.05233
F         10.85651       -4.74508       -1.01527
F         10.58879       -6.60459       -2.17263
H          7.96250      -10.44835        5.17029
H          8.70651       -8.87044        5.48389
H          9.29117       -9.87778        4.14511
H          6.46900       -8.62954        4.31410
H          7.05190       -9.62534        2.98488
H          8.83789       -7.91205        2.49172
H          8.23519       -6.91073        3.81259
H          5.99961       -6.73120        2.65359
H          6.60026       -7.73916        1.33949
H          8.39569       -6.02448        0.88355
H          7.71019       -4.98279        2.13816
H          5.49917       -4.93727        0.90023
H          6.18061       -5.92426       -0.37723
H          7.01779       -3.06919        0.44404
H          6.16348       -3.53586       -1.05076
H          8.89375       -4.33780       -0.29604
H          9.43422       -2.27299       -0.82120
H          7.91515       -2.02809       -1.71996
H         10.45937       -2.64743       -2.95356
H          8.88025       -2.69879       -3.73546
H          8.26786       -6.02307       -1.69585
H          7.32740       -4.89981       -2.70991
H         10.08846       -4.52893       -5.05025
H          8.34853       -4.61100       -4.80668
H         10.29331       -6.98692       -4.68500
H          8.38430       -7.63096       -3.29980
H          8.29060       -8.41772       -4.89292
H         12.90886       -5.52176       -2.27243
