69

C          3.44817        7.03103       -1.26649
C          4.43413        5.88048       -1.05387
C          4.94837        5.78517        0.38611
C          5.94748        4.64472        0.60354
C          6.46678        4.55260        2.04137
C          7.48417        3.42489        2.24647
C          8.01229        3.35306        3.68462
C          9.04462        2.25389        3.85768
O          9.48310        2.24675        5.24133
C         10.49230        1.30346        5.48401
N         10.86183        1.43438        6.89662
C         11.15604        2.62302        7.50249
N         11.08868        3.83017        6.94595
C         11.37930        5.07474        7.63398
C         10.97052        6.20913        6.68344
O         10.42513        5.99033        5.61783
O         11.29798        7.38901        7.19844
C         10.95790        8.58769        6.40780
C          9.57374        9.10874        6.75864
C          9.27421       10.40709        6.00115
N         11.53655        2.29551        8.75320
N         11.50009        0.94032        8.97273
C         11.09002        0.43025        7.84133
C         10.90691       -1.03717        7.59976
C         11.92533       -1.51182        6.53833
O         12.66216       -0.75783        5.92805
O         11.85443       -2.83677        6.37946
C         12.75182       -3.43662        5.37890
C         12.10818       -3.44319        4.00645
C         10.97576       -1.84607        8.90628
H          3.09586        7.07210       -2.30604
H          3.91235        8.00102       -1.03398
H          2.56480        6.92358       -0.61970
H          5.29206        5.99799       -1.73713
H          3.95461        4.92658       -1.33060
H          4.09171        5.65786        1.07112
H          5.42131        6.74289        0.66703
H          6.80159        4.77383       -0.08407
H          5.47469        3.68708        0.32397
H          5.61673        4.40801        2.73045
H          6.92965        5.51384        2.32496
H          8.32851        3.56860        1.55049
H          7.02094        2.46127        1.97342
H          7.17919        3.17424        4.38284
H          8.46708        4.31691        3.96475
H          9.91884        2.42177        3.20223
H          8.61924        1.26247        3.61708
H         11.39076        1.47952        4.86343
H         10.15106        0.26762        5.32054
H         10.56080        3.92727        6.06819
H         12.44917        5.16974        7.87782
H         10.80217        5.18228        8.56915
H         11.04205        8.33064        5.34390
H         11.74289        9.30429        6.67929
H          9.51889        9.28186        7.84413
H          8.82281        8.34409        6.50866
H         10.00110       11.19376        6.24817
H          8.27698       10.78304        6.26091
H          9.29960       10.25319        4.91315
H         11.81406        2.91717        9.50463
H          9.90847       -1.19044        7.14991
H         12.91564       -4.45118        5.75991
H         13.69613       -2.87881        5.38931
H         11.14334       -3.96640        4.02315
H         12.76706       -3.96959        3.30229
H         11.96108       -2.42287        3.62962
H         11.95903       -1.74372        9.38076
H         10.79752       -2.90339        8.68818
H         10.21620       -1.49538        9.61447
