78

C          0.92707        1.06643       -0.18451
C          2.29727        0.45514        0.11867
C          2.96395       -0.17815       -1.10749
C          4.32102       -0.82227       -0.80703
C          5.01673       -1.38609       -2.05017
C          6.30913       -2.14849       -1.73957
C          7.03358       -2.63834       -2.99644
C          8.24493       -3.53015       -2.70223
C          8.96934       -3.96456       -3.98283
C          9.97399       -5.08249       -3.72928
N         10.64918       -5.50099       -5.02556
C         11.90345       -4.69964       -5.28454
C         12.47394       -5.04329       -6.64975
O         12.74774       -6.43237       -6.73682
C         11.55858       -7.18837       -6.60777
C         10.81450       -7.02657       -5.25144
C          9.37587       -7.55263       -5.46509
O          8.71773       -6.64400       -6.32951
C          7.31764       -6.91816       -6.54999
C          6.76086       -5.84464       -7.46826
C          5.27736       -6.05723       -7.79833
C          4.72551       -4.98913       -8.74563
C         11.45728       -7.77470       -4.05939
C         12.81299       -7.33253       -3.54656
C         12.90573       -6.59019       -2.35895
C         14.13909       -6.15534       -1.87376
C         15.33031       -6.46136       -2.55069
C         15.23550       -7.23108       -3.72015
C         14.00314       -7.66487       -4.20737
C         16.66422       -6.01553       -2.01318
H          0.47954        1.51637        0.71194
H          0.22497        0.30680       -0.56004
H          1.00055        1.85393       -0.94956
H          2.19444       -0.30708        0.90973
H          2.96446        1.23030        0.53220
H          3.08780        0.59039       -1.89112
H          2.28846       -0.93905       -1.53756
H          4.18466       -1.62874       -0.06474
H          4.98215       -0.07949       -0.32688
H          5.23651       -0.56035       -2.74922
H          4.32280       -2.05763       -2.58593
H          6.07357       -3.01158       -1.09240
H          6.98766       -1.50607       -1.15208
H          7.35180       -1.76968       -3.59882
H          6.32477       -3.20179       -3.62915
H          7.90848       -4.42381       -2.14849
H          8.95032       -3.00534       -2.03692
H          9.46646       -3.09133       -4.43690
H          8.22670       -4.32353       -4.71586
H          9.46449       -5.96062       -3.31691
H         10.76682       -4.79469       -3.02884
H          9.95238       -5.27758       -5.76608
H         12.61481       -4.94043       -4.48629
H         11.62583       -3.63878       -5.22320
H         13.42593       -4.51607       -6.79148
H         11.78243       -4.73164       -7.45928
H         11.84100       -8.24370       -6.71857
H         10.85780       -6.93111       -7.42443
H          8.83624       -7.64647       -4.50381
H          9.43276       -8.56558       -5.90642
H          6.79453       -6.92895       -5.57533
H          7.21568       -7.92120       -7.00146
H          7.35208       -5.83390       -8.39839
H          6.89856       -4.85760       -6.99464
H          4.68983       -6.06400       -6.86526
H          5.14422       -7.05408       -8.24992
H          4.80459       -3.98353       -8.30738
H          3.66654       -5.16968       -8.97097
H          5.27123       -4.98036       -9.70011
H         11.51037       -8.82717       -4.38283
H         10.74583       -7.76398       -3.21976
H         12.00139       -6.36647       -1.78775
H         14.17907       -5.58449       -0.94383
H         16.14636       -7.50431       -4.25621
H         13.97756       -8.26539       -5.11721
H         16.93076       -6.58591       -1.11045
H         16.64900       -4.95425       -1.72898
H         17.46551       -6.16298       -2.74730
