41

C          0.95874        0.06193        0.16500
C          2.48207        0.11548        0.30407
C          3.11714        1.17809       -0.60423
C          4.62597        1.20117       -0.47131
O          5.13708        2.26699       -1.35655
C          6.43268        2.24465       -1.64926
O          7.26771        1.45597       -1.24803
C          6.76161        3.36642       -2.65168
N          8.19075        3.54063       -2.83562
C          8.95522        4.33101       -1.84182
C         10.36629        4.34140       -2.44370
N         10.32665        3.10815       -3.23827
C          9.05057        2.75745       -3.52266
N          8.77949        1.78733       -4.40563
C          7.53038        1.03643       -4.61710
C          7.85396       -0.29838       -5.29091
C          6.59988       -1.14297       -5.48074
F          6.00468       -1.41701       -4.28775
F          5.67991       -0.50189       -6.24993
F          6.89531       -2.31547       -6.07556
H          0.52839       -0.70042        0.82703
H          0.65996       -0.18452       -0.86423
H          0.49852        1.02635        0.42383
H          2.90997       -0.87292        0.06817
H          2.75113        0.32267        1.35302
H          2.71347        2.17272       -0.35646
H          2.85064        0.97884       -1.65496
H          5.09565        0.25514       -0.77424
H          4.95585        1.44143        0.55007
H          6.34624        4.31839       -2.29592
H          6.26441        3.15954       -3.60752
H          8.92636        3.82380       -0.86443
H          8.52421        5.33439       -1.74858
H         11.15087        4.29042       -1.68097
H         10.53781        5.21972       -3.08581
H         11.10988        2.80287       -3.80517
H          9.58697        1.43681       -4.91199
H          6.83866        1.61408       -5.24681
H          7.06599        0.83793       -3.64474
H          8.55180       -0.88709       -4.67817
H          8.29803       -0.15042       -6.28683
