69

C         10.16327        4.51051        0.04192
C          9.15098        3.40001       -0.24996
C          9.80972        2.05571       -0.57699
C          8.81007        0.93820       -0.89532
C          9.49817       -0.38784       -1.23701
C          8.52505       -1.49507       -1.60509
O          9.28864       -2.66319       -1.94169
C          8.51235       -3.76638       -2.35225
C          9.48571       -4.86649       -2.80486
C          8.78445       -6.20105       -3.06977
N          8.60899       -6.96713       -1.82342
C          9.09631       -6.62262       -0.61886
N          8.71297       -7.24575        0.50909
C          7.73418       -8.32364        0.62619
C          8.39196       -9.70253        0.64776
O          9.32185       -9.68851        1.71309
C         10.00847      -10.93581        1.91508
C         10.98278      -10.72674        3.05995
O         10.32695      -10.40648        4.28306
N          9.98564       -5.60805       -0.52725
C         10.58888       -5.09598       -1.76656
C         10.29118       -5.02332        0.76517
O         10.96026       -5.99644        1.55098
C         11.20782       -5.57092        2.91175
C         11.76216       -6.75800        3.68005
C         12.00300       -6.45700        5.16485
C         12.58582       -7.65807        5.91500
H          9.66263        5.46123        0.26853
H         10.82741        4.68200       -0.81817
H         10.79843        4.25663        0.90366
H          8.50614        3.70126       -1.09270
H          8.47839        3.27499        0.61546
H         10.44642        1.74564        0.27051
H         10.49289        2.18463       -1.43478
H          8.17293        1.25078       -1.74069
H          8.13005        0.79696       -0.03734
H         10.11141       -0.72237       -0.38347
H         10.19099       -0.24157       -2.08139
H          7.90103       -1.20184       -2.47089
H          7.84156       -1.72692       -0.76430
H          7.84522       -3.49795       -3.19434
H          7.86117       -4.12028       -1.52381
H          9.96241       -4.54006       -3.74048
H          9.37627       -6.81061       -3.76814
H          7.79307       -6.04357       -3.52145
H          8.10034       -7.84143       -1.88403
H          9.40616       -7.17086        1.26327
H          6.98569       -8.25202       -0.17522
H          7.19533       -8.16911        1.57179
H          8.90543       -9.91630       -0.31242
H          7.61390      -10.47603        0.79428
H         10.55163      -11.22523        0.99614
H          9.27720      -11.72615        2.16325
H         11.71220       -9.94323        2.77980
H         11.53929      -11.65765        3.23707
H          9.71281       -9.67727        4.09963
H         11.34323       -5.80660       -2.14010
H         11.08375       -4.14990       -1.52963
H          9.35421       -4.70721        1.26618
H         10.91673       -4.13407        0.58714
H         10.26086       -5.21281        3.35979
H         11.91907       -4.72545        2.90390
H         12.70080       -7.08388        3.20368
H         11.05545       -7.59869        3.58445
H         11.05309       -6.15177        5.63507
H         12.68181       -5.59353        5.26075
H         11.92988       -8.53727        5.83645
H         12.71953       -7.43153        6.98075
H         13.56902       -7.93986        5.51076
