61

C          2.04784        1.49487       -0.95490
C          2.27888        0.34288       -0.00351
O          2.87306        0.82387        1.27755
C          4.18587        0.86942        1.31011
O          5.01915        0.73213        0.46241
N          4.58009        1.27621        2.69667
C          4.14577        0.86968        3.91816
N          4.91994        1.43976        4.85333
N          5.82299        2.19044        4.23755
N          5.64170        2.09371        2.94642
C          6.46967        2.79844        1.93141
C          7.44406        3.77510        2.58015
C          8.27910        4.48138        1.50176
C          9.24549        5.50939        2.10182
C         10.10530        6.20320        1.04032
C         11.01970        7.25609        1.66189
O         11.89545        7.85367        0.67910
C         11.36992        8.90632       -0.02213
O         10.23404        9.31689        0.13171
C         12.38016        9.45045       -0.96233
C         12.09644       10.50421       -1.73576
C          3.07837       -0.11267        4.20040
C          3.44502       -1.48863        3.56289
O          4.14873       -1.49702        2.54443
N          2.95440       -2.59774        4.15349
C          2.07381       -2.61001        5.33392
C          2.82462       -2.78267        6.65499
C          3.30869       -3.90902        3.56919
C          2.30140       -4.38292        2.52306
H          1.53909        1.10929       -1.84935
H          2.99269        1.94889       -1.27787
H          1.40519        2.26288       -0.50646
H          2.95547       -0.41922       -0.40792
H          1.34404       -0.12364        0.32623
H          5.76865        3.31141        1.25691
H          6.98105        2.01715        1.35199
H          8.10424        3.23711        3.27548
H          6.88926        4.51592        3.17517
H          7.61213        4.98750        0.78355
H          8.84865        3.73353        0.92492
H          9.89631        5.01070        2.84028
H          8.66770        6.26572        2.65959
H          9.46043        6.69186        0.29428
H         10.72129        5.46071        0.50818
H         11.69867        6.80638        2.39960
H         10.42805        8.04866        2.14282
H         13.35347        8.95844       -0.98209
H         11.11397       10.97657       -1.68700
H         12.83197       10.91848       -2.42453
H          2.12559        0.21722        3.75870
H          2.96483       -0.15053        5.28908
H          1.36645       -3.43903        5.18785
H          1.46164       -1.69873        5.34363
H          3.41575       -3.70788        6.65957
H          2.10999       -2.83719        7.48692
H          3.50914       -1.94477        6.84679
H          3.37339       -4.62217        4.40280
H          4.30742       -3.81429        3.12657
H          1.28792       -4.46528        2.93948
H          2.59112       -5.37505        2.15254
H          2.27597       -3.69546        1.66781
