87

C          1.41496       -8.16345       -2.13279
C          2.92576       -8.16035       -2.38149
C          3.44155       -6.83698       -2.95805
C          4.94808       -6.82713       -3.23725
C          5.45505       -5.49606       -3.80184
C          6.95157       -5.49304       -4.13113
C          7.44647       -4.16301       -4.70977
C          8.91967       -4.18792       -5.12852
C          9.40925       -2.86414       -5.72773
C         10.85093       -2.94533       -6.24632
C         11.32016       -1.64750       -6.87971
O         12.64796       -1.86016       -7.42482
C         13.12200       -0.74975       -8.16540
N         14.42432       -1.08541       -8.72924
C         15.54556       -0.13676       -8.56565
C         16.54377       -0.56271       -7.48743
C         17.52101        0.56993       -7.18360
O         16.74285        1.68593       -6.78371
C         17.49448        2.89673       -6.63069
C         16.53606        4.00511       -6.22600
C         17.21736        5.37094       -6.08931
C         16.24882        6.48219       -5.66638
C         16.91718        7.85301       -5.54052
O         16.10100        0.07950       -9.86125
C         16.65554       -1.08462      -10.39790
N         15.67044       -2.20274      -10.36513
C         14.54281       -2.08072       -9.63829
N         13.50089       -2.92326       -9.77487
C         15.94601       -3.34205      -11.25325
C         17.34263       -3.94775      -11.04847
C         17.53060       -4.58323       -9.65658
S         19.13060       -4.12334       -8.96379
O         20.19355       -4.67856       -9.76871
O         19.07252       -2.70849       -8.66392
O         19.08824       -4.89595       -7.54340
H          1.07636       -9.12252       -1.71712
H          0.85671       -7.99061       -3.06524
H          1.12468       -7.37367       -1.42392
H          3.18813       -8.98261       -3.06916
H          3.45598       -8.37631       -1.43826
H          3.19280       -6.01609       -2.26229
H          2.89765       -6.61226       -3.89283
H          5.19221       -7.63958       -3.94453
H          5.49507       -7.06311       -2.30745
H          5.23578       -4.68675       -3.08334
H          4.88478       -5.24934       -4.71502
H          7.16589       -6.30430       -4.84947
H          7.52957       -5.73533       -3.22201
H          7.28563       -3.35835       -3.97127
H          6.82770       -3.89665       -5.58496
H          9.07044       -4.99597       -5.86621
H          9.54777       -4.45120       -4.25990
H          9.32907       -2.06506       -4.97137
H          8.73906       -2.57063       -6.55429
H         10.92228       -3.75085       -6.99708
H         11.53660       -3.21589       -5.42793
H         11.36495       -0.82828       -6.14039
H         10.64074       -1.33433       -7.69466
H         13.26634        0.13251       -7.52051
H         12.40607       -0.49311       -8.97274
H         15.11460        0.83175       -8.28342
H         17.09308       -1.47456       -7.76249
H         15.96358       -0.79494       -6.58158
H         18.12616        0.81554       -8.07812
H         18.22089        0.25790       -6.38640
H         18.00054        3.13903       -7.58582
H         18.28040        2.75405       -5.86421
H         16.05614        3.72687       -5.27358
H         15.73158        4.06446       -6.97820
H         17.69034        5.64609       -7.04812
H         18.03796        5.30509       -5.35404
H         15.78262        6.20818       -4.70505
H         15.42387        6.53920       -6.39675
H         17.72216        7.83886       -4.79097
H         16.19590        8.62378       -5.23728
H         17.36086        8.17105       -6.49570
H         17.56877       -1.39998       -9.86823
H         16.89008       -0.86581      -11.45020
H         13.44711       -3.59307      -10.52762
H         12.84836       -2.97068       -8.98683
H         15.83565       -3.01504      -12.30011
H         15.19874       -4.12450      -11.07212
H         18.11335       -3.18766      -11.23904
H         17.49017       -4.70830      -11.82581
H         17.49176       -5.67889       -9.68632
H         16.79288       -4.22504       -8.92445
H         19.73219       -5.63049       -7.58235
