42

C          3.27033        0.21127       -1.65455
C          2.84335       -0.09893       -0.21722
C          2.99704        1.06701        0.74226
O          4.41689        1.38233        0.85079
C          4.69240        2.46412        1.69217
P          6.52916        2.50109        1.71268
C          7.23642        2.62698       -0.04872
O          8.09536        1.86929       -0.40936
O          6.63214        3.62650       -0.66557
C          7.00233        3.85058       -2.09817
C          6.18199        2.95657       -3.00184
C          7.32731        3.76065        2.89137
O          8.30272        3.44710        3.51989
O          6.63852        4.88477        2.83881
C          7.12909        6.01459        3.69849
C          8.26815        6.77046        3.04209
C          7.92924        7.41141        1.69003
C          9.08339        8.25449        1.14141
H          3.10407       -0.65723       -2.30392
H          4.33667        0.46778       -1.71160
H          2.69447        1.05115       -2.07060
H          3.40677       -0.95835        0.17814
H          1.78181       -0.39184       -0.19151
H          2.61849        0.81491        1.74794
H          2.46690        1.96539        0.37753
H          4.33950        2.33187        2.73532
H          4.33622        3.44408        1.31813
H          6.99781        1.25089        2.16826
H          8.08142        3.67533       -2.18792
H          6.78090        4.91438       -2.23485
H          6.43113        1.89723       -2.86257
H          6.40412        3.21835       -4.04574
H          5.10670        3.10167       -2.83816
H          7.41409        5.57924        4.66408
H          6.22496        6.62444        3.80833
H          9.15125        6.11749        2.95654
H          8.55117        7.55525        3.76495
H          7.02931        8.03890        1.80079
H          7.66520        6.62539        0.96268
H          9.34312        9.06951        1.83198
H          8.82092        8.70951        0.17772
H          9.98857        7.64882        0.98990
