84

C          1.05812       -1.92395        0.74631
C          2.51602       -1.46716        0.64431
C          3.17165       -1.81621       -0.69676
C          4.62614       -1.34745       -0.81250
C          5.27715       -1.68778       -2.15741
C          6.72054       -1.18889       -2.28845
C          7.36090       -1.52152       -3.64037
C          8.78641       -0.98120       -3.80256
C          9.40401       -1.31353       -5.16495
C         10.80649       -0.72920       -5.37437
C         11.38374       -1.07876       -6.75272
C         12.74699       -0.46007       -7.00761
O         13.17524       -0.85781       -8.33054
C         14.39242       -0.29066       -8.76457
C         14.62790       -0.77245      -10.17937
N         13.69381       -1.66125      -10.64397
C         13.68069       -2.22042      -11.86562
C         12.58219       -3.21255      -12.14373
C         13.06236       -4.64412      -12.00803
C         12.94032       -5.56676      -12.96322
C         14.70908       -1.86272      -12.76745
C         15.71888       -0.92906      -12.33272
C         15.65011       -0.40407      -11.01347
C         16.73945       -0.55468      -13.23424
C         16.78580       -1.04640      -14.53257
C         15.78332       -1.97461      -14.94034
C         14.78026       -2.37721      -14.08984
C         17.85722       -0.57497      -15.48543
C         18.29609       -1.56624      -16.57262
C         19.47337       -1.02514      -17.40770
C         19.83255       -1.94450      -18.55208
C         19.22303       -1.79380      -19.80661
C         19.52243       -2.66302      -20.85799
C         20.43766       -3.70167      -20.66874
C         21.05163       -3.86241      -19.42367
C         20.75044       -2.99002      -18.37533
H          0.61979       -1.66039        1.71867
H          0.97144       -3.01455        0.62826
H          0.43785       -1.45850       -0.03433
H          3.10199       -1.91882        1.46274
H          2.57171       -0.37649        0.80113
H          2.57953       -1.37211       -1.51671
H          3.12538       -2.90894       -0.85119
H          5.22013       -1.79367        0.00451
H          4.66943       -0.25539       -0.65369
H          4.66993       -1.25791       -2.97368
H          5.25270       -2.78144       -2.30885
H          7.33292       -1.61921       -1.47668
H          6.74193       -0.09557       -2.13464
H          6.72786       -1.11712       -4.45004
H          7.36647       -2.61672       -3.78202
H          9.42756       -1.38413       -2.99926
H          8.77803        0.11396       -3.66243
H          8.73784       -0.94286       -5.96382
H          9.44384       -2.40986       -5.28991
H         11.48245       -1.09675       -4.58361
H         10.76525        0.36736       -5.25742
H         10.69157       -0.73698       -7.53986
H         11.46622       -2.17359       -6.85337
H         13.49413       -0.80308       -6.26918
H         12.70097        0.64322       -6.96416
H         15.23902       -0.59954       -8.12005
H         14.35263        0.81567       -8.75271
H         12.95148       -1.86713       -9.96166
H         12.17079       -3.04419      -13.14859
H         11.75899       -3.02844      -11.43300
H         13.51664       -4.90580      -11.04776
H         12.48480       -5.34227      -13.93034
H         13.27805       -6.59056      -12.80577
H         16.40395        0.30339      -10.66693
H         17.50260        0.14950      -12.89606
H         15.81321       -2.38021      -15.95106
H         14.04046       -3.09799      -14.43327
H         18.73074       -0.25535      -14.89509
H         17.48530        0.34528      -15.97359
H         17.46119       -1.78359      -17.25713
H         18.58443       -2.52737      -16.11682
H         20.34805       -0.88102      -16.75333
H         19.20888       -0.03078      -17.80267
H         18.51420       -0.97726      -19.96524
H         19.04645       -2.52255      -21.82940
H         20.67774       -4.37883      -21.48900
H         21.77333       -4.66587      -19.27071
H         21.24428       -3.11625      -17.40874
