69

O          2.43025        0.07190       -1.47651
C          3.72871        0.28028       -0.93052
C          3.52234        0.93834        0.42660
O          4.81859        1.13941        0.99753
C          4.79505        1.75508        2.26227
C          6.26531        1.77837        2.69724
N          6.55886        2.69351        3.82467
C          6.47673        3.99273        3.67027
S          7.19105        4.97395        4.84031
C          8.00204        3.48344        5.59698
C          7.19868        2.24681        5.10417
C          6.23766        1.50225        6.15019
C          4.73485        1.94497        6.04133
C          3.75514        0.94241        6.67598
C          4.45077        3.34377        6.61616
C          6.40631       -0.01775        5.92220
O          5.89311       -0.41916        4.64868
C          6.77956        1.71425        7.58244
C          9.47818        3.46367        5.18307
C         10.27875        2.37887        5.91780
C         11.74683        2.40031        5.48154
S         12.80421        1.30901        6.46183
C         13.13691        2.32921        7.90936
S         12.50553        3.86401        8.09494
N         13.95372        1.72372        8.80150
C         14.50276        0.36915        8.67135
C         14.08992       -0.46780        9.88692
O         14.49282        0.14553       11.10434
C         13.92990        1.45140       11.23058
C         14.33644        2.35781       10.06966
H          2.52334       -0.31394       -2.36005
H          4.34237        0.94299       -1.56699
H          4.27740       -0.66927       -0.79470
H          2.90674        0.28923        1.07573
H          2.99731        1.90383        0.30554
H          4.18320        1.18370        2.98450
H          4.37610        2.78239        2.20131
H          6.87531        2.09346        1.83914
H          6.56705        0.77596        3.01019
H          5.99608        4.41770        2.78771
H          7.91523        3.61525        6.67934
H          7.94330        1.49554        4.80294
H          4.48955        1.97182        4.96980
H          3.95099        0.78946        7.74744
H          3.76830       -0.03173        6.17313
H          2.73312        1.33585        6.59530
H          4.46798        3.33977        7.71503
H          3.44618        3.66974        6.31509
H          5.15156        4.11717        6.27800
H          5.88730       -0.55423        6.73110
H          7.48199       -0.26542        6.00029
H          5.90514       -1.38742        4.60220
H          6.67590        2.74654        7.93342
H          7.83571        1.42384        7.67172
H          6.21348        1.08727        8.28314
H          9.92769        4.44194        5.41482
H          9.55267        3.33426        4.08925
H          9.86240        1.37418        5.74048
H         10.23443        2.57202        6.99995
H         12.16400        3.41438        5.56851
H         11.87223        2.04495        4.44761
H         15.60170        0.44059        8.61791
H         14.14729       -0.10609        7.74993
H         14.57971       -1.45009        9.85395
H         12.99148       -0.61584        9.87446
H         14.30256        1.85921       12.17911
H         12.82528        1.38658       11.28091
H         15.42871        2.50706       10.06743
H         13.84143        3.33387       10.12918
