43

N          1.74084       -0.49243        0.84410
C          3.18253       -0.42067        0.63441
C          3.75265       -1.67868        1.31162
N          5.28253       -1.87112        1.22600
C          6.08433       -0.58092        1.69081
O          6.32340        0.08756        0.51852
C          6.82646       -0.93786       -0.40279
C          5.76545       -2.03918       -0.22581
C          8.26798       -1.29798       -0.09111
C          8.72157       -2.61434        0.06720
C         10.06830       -2.86562        0.34878
C         10.96871       -1.80786        0.47732
C         10.52379       -0.49142        0.31354
C          9.18417       -0.23737        0.02638
C          5.65238       -3.01434        2.02824
N          6.02836       -4.17870        1.62388
N          6.27147       -4.92139        2.77251
C          6.01076       -4.13524        3.79082
O          5.59508       -2.86697        3.37814
S          6.13212       -4.54732        5.45974
C          5.80333       -2.94137        6.29252
C          5.96157       -3.16066        7.79526
H          1.22026       -0.13823        0.04563
H          1.44078        0.02440        1.66828
H          3.65357        0.49552        1.02761
H          3.38879       -0.43678       -0.44415
H          3.31260       -2.58015        0.86683
H          3.51575       -1.67315        2.38403
H          6.99168       -0.97145        2.18062
H          5.46659        0.01356        2.37164
H          6.74080       -0.48280       -1.39897
H          6.11691       -3.06602       -0.35109
H          4.90268       -1.86463       -0.87270
H          8.04620       -3.46479       -0.02723
H         10.40831       -3.89443        0.46745
H         12.01780       -2.00696        0.69736
H         11.22462        0.33922        0.40268
H          8.84176        0.79063       -0.10293
H          4.78597       -2.61811        6.03753
H          6.52574       -2.20525        5.91655
H          5.23966       -3.89466        8.17750
H          5.78311       -2.21134        8.31722
H          6.97364       -3.50119        8.05113
