59

C         11.62086        2.97329        1.94736
C         11.81297        1.57707        1.35285
C         10.50264        0.94874        0.86613
C         10.69168       -0.46671        0.31109
C          9.41314       -1.14161       -0.15361
O          8.82425       -0.43861       -1.32117
C          9.12823       -0.88279       -2.52505
O          9.89659       -1.82655       -2.74990
C          8.38526       -0.12932       -3.62332
C          9.01708       -0.28175       -5.01767
N          9.32029       -1.75616       -5.27285
C          8.12846       -2.62147       -5.58094
C          7.35168       -2.08484       -6.78511
C          6.98535       -0.60843       -6.52812
C          8.20444        0.28140       -6.20794
C          7.76899        1.74921       -6.03429
C          8.90247        2.77300       -6.06884
C          8.34794        4.21092       -6.07449
F          7.50674        4.44761       -5.04333
F          9.37579        5.09826       -5.97762
F          7.68545        4.46527       -7.22641
O          9.74838        2.57817       -4.93919
C          8.08542       -2.30013       -8.12451
C          8.19989       -3.78057       -8.54562
C          8.84899       -3.94264       -9.87609
C         10.03103       -4.51807      -10.12382
F         10.79904       -5.04002       -9.16379
F         10.57890       -4.64385      -11.31778
F          8.15506       -3.43312      -10.92765
H         12.57772        3.40924        2.26220
H         10.96345        2.94317        2.82821
H         11.16562        3.65909        1.21791
H         12.27442        0.91542        2.10477
H         12.52606        1.62487        0.51264
H         10.05102        1.59734        0.09684
H          9.78091        0.91535        1.70051
H         11.11417       -1.11845        1.09476
H         11.42649       -0.47186       -0.51045
H          8.61805       -1.07615        0.59961
H          9.57750       -2.18674       -0.44025
H          8.37683        0.93675       -3.36412
H          7.33453       -0.45979       -3.59598
H         10.00174        0.20338       -4.98813
H          9.76619       -2.06304       -4.34922
H         10.00683       -1.82962       -6.03176
H          7.50508       -2.63339       -4.67747
H          8.50872       -3.63989       -5.73223
H          6.41355       -2.66231       -6.82715
H          6.25493       -0.55018       -5.70405
H          6.47563       -0.20230       -7.41353
H          8.88308        0.24896       -7.07997
H          7.18963        1.88324       -5.10856
H          7.08622        1.98910       -6.86253
H          9.47257        2.67450       -7.01277
H         10.41687        3.28480       -4.92909
H          9.09600       -1.85491       -8.11400
H          7.53689       -1.75557       -8.90761
H          7.19068       -4.22547       -8.59013
H          8.77442       -4.36864       -7.81571
