76

C         12.45044       -5.67289       -6.81425
C         11.82634       -4.91256       -5.64150
C         12.20039       -5.48775       -4.27091
C         11.55280       -4.74539       -3.09748
C         11.92388       -5.31517       -1.72492
C         11.25444       -4.58818       -0.55365
C         11.62999       -5.16384        0.81495
C         10.94985       -4.46592        1.99780
C         11.35202       -5.06476        3.34817
C         10.66326       -4.41454        4.55337
C         11.10597       -4.98319        5.89293
O         12.48336       -4.62478        6.10667
C         13.05034       -5.19222        7.26727
C         14.46565       -4.62295        7.33371
C         14.46860       -3.07801        7.46701
C         15.64005       -2.80395        8.31887
N         16.13655       -3.88076        8.81904
C         15.39623       -5.15045        8.48166
C         14.65934       -5.58770        9.76676
C         15.53688       -6.05001       10.93963
C         14.75861       -5.97709       12.26204
N         14.44059       -4.57830       12.59279
C         16.44083       -6.16621        7.96451
C         15.81508       -7.51304        7.59678
O         15.34647       -8.28124        8.41279
O         15.87656       -7.71778        6.27025
C         15.36738       -9.01134        5.78519
C         13.86322       -8.99162        5.55124
C         13.39366       -7.96040        4.52370
H         12.16538       -5.23022       -7.77846
H         12.12815       -6.72491       -6.82471
H         13.54926       -5.66589       -6.75783
H         10.72806       -4.91310       -5.74548
H         12.13157       -3.85325       -5.68436
H         13.29891       -5.47049       -4.15559
H         11.91145       -6.55322       -4.23238
H         10.45512       -4.76781       -3.21558
H         11.83738       -3.67912       -3.13859
H         13.02066       -5.27897       -1.59870
H         11.65279       -6.38527       -1.68984
H         10.15822       -4.62876       -0.67844
H         11.52151       -3.51719       -0.58644
H         12.72605       -5.11108        0.94365
H         11.37727       -6.23890        0.83737
H          9.85402       -4.52512        1.87822
H         11.19740       -3.38991        1.98319
H         12.44502       -4.98797        3.46731
H         11.12103       -6.14395        3.34498
H          9.57133       -4.54470        4.47856
H         10.84296       -3.32643        4.55761
H         11.01045       -6.08599        5.90570
H         10.49313       -4.57974        6.72081
H         13.07200       -6.29765        7.20650
H         12.46615       -4.92061        8.16987
H         14.94596       -4.87280        6.37528
H         13.56830       -2.68321        7.97676
H         14.51601       -2.53872        6.51064
H         16.06554       -1.82647        8.55917
H         16.91517       -3.88182        9.48166
H         13.98465       -6.41059        9.49380
H         14.03999       -4.74466       10.11252
H         16.44106       -5.42262       11.05272
H         15.88646       -7.07757       10.76846
H         15.33361       -6.49577       13.04805
H         13.81376       -6.53085       12.15251
H         15.19481       -4.15972       13.13839
H         13.60857       -4.52431       13.17889
H         17.18314       -6.37565        8.74904
H         16.96038       -5.74859        7.09293
H         15.64990       -9.78017        6.51511
H         15.92093       -9.16247        4.84987
H         13.34907       -8.85142        6.51458
H         13.59277      -10.00572        5.21540
H         13.62689       -6.93174        4.82986
H         12.30720       -8.02107        4.38194
H         13.86258       -8.12515        3.54292
