88

C          3.67505       -0.66694       -1.04318
C          2.70670       -0.11335       -2.05630
C          3.01021       -0.14381       -3.42822
C          2.11791        0.36449       -4.36970
C          0.90339        0.91556       -3.95312
C          0.57252        0.96625       -2.59202
C          1.48330        0.44234       -1.66017
C         -0.72959        1.60743       -2.16314
C         -0.62255        3.10244       -1.76068
C          0.11738        3.39258       -0.42844
N          1.43931        3.82887       -0.88612
C          1.43673        4.08687       -2.19667
N          2.47985        4.51534       -2.95132
C          3.79979        4.76051       -2.39931
C          4.67483        3.44529       -2.25473
C          6.25609        3.56602       -2.15443
C          6.83250        4.49632       -1.02473
C          8.36426        4.34436       -0.63516
C          9.51195        4.50659       -1.71109
C          9.70237        5.85061       -2.52350
C          9.94699        7.19125       -1.73556
F         10.92109        7.04538       -0.82491
F         10.30858        8.13680       -2.61866
F          8.82075        7.59367       -1.11732
F         10.78866        5.64241       -3.30810
F          8.62072        6.03553       -3.32834
F         10.66566        4.26642       -1.04372
F          9.34210        3.52546       -2.64071
F          8.57910        5.25450        0.34878
F          8.52289        3.10376       -0.11044
F          6.59260        5.78558       -1.36938
F          6.14437        4.22515        0.12109
F          6.69031        2.29558       -1.95567
F          6.69896        3.99593       -3.36133
F          4.21016        2.75566       -1.17987
F          4.45231        2.69224       -3.36556
F          4.43803        5.62498       -3.21599
F          3.68870        5.33777       -1.16724
C          2.34328        4.54363       -4.43388
C          1.81351        5.86537       -4.99718
C          1.62844        5.79345       -6.52392
S          3.08416        5.16772       -7.41461
C          2.70473        3.41176       -7.54424
S          1.20277        2.74444       -7.26875
N          3.79458        2.69436       -7.93672
C          5.12129        3.27168       -8.02158
C          5.65935        3.57812       -9.27490
C          6.95163        4.10083       -9.35661
C          7.69955        4.31135       -8.19481
C          7.15974        3.99292       -6.94449
C          5.87144        3.46617       -6.85456
C          3.68353        1.30112       -8.31120
C          4.32117        0.33156       -7.53223
C          4.24155       -1.01189       -7.90594
C          3.53561       -1.38007       -9.05391
C          2.91236       -0.40107       -9.83425
C          2.98663        0.94266       -9.46896
N          0.20978        3.87522       -2.71319
H          3.90454       -1.72231       -1.24899
H          3.27694       -0.60243       -0.02274
H          4.62959       -0.12078       -1.06820
H          3.95396       -0.58349       -3.75823
H          2.35215        0.32885       -5.43413
H          0.19965        1.28162       -4.70451
H          1.22854        0.44016       -0.59652
H         -1.18019        1.07499       -1.31083
H         -1.45588        1.53728       -2.98656
H         -1.62935        3.53830       -1.73198
H          0.20253        2.50093        0.20471
H         -0.37349        4.19212        0.14610
H          2.21751        4.02748       -0.27074
H          1.73876        3.67835       -4.73984
H          3.33592        4.35061       -4.85164
H          2.51316        6.67183       -4.73390
H          0.84296        6.12639       -4.54493
H          1.44248        6.79450       -6.93393
H          0.79315        5.13185       -6.80431
H          5.06542        3.40731      -10.17292
H          7.37422        4.34408      -10.33151
H          8.70782        4.72007       -8.26397
H          7.74610        4.14932       -6.03856
H          5.44188        3.20590       -5.88722
H          4.87794        0.62714       -6.64245
H          4.73724       -1.77135       -7.30037
H          3.47669       -2.42832       -9.34666
H          2.36856       -0.68376      -10.73608
H          2.49923        1.71219      -10.06755
H          0.09542        3.73919       -3.71383
