108

C          0.83298        0.58616        1.52418
C          2.35901        0.63359        1.42590
C          2.87644        1.76740        0.53536
C          4.40391        1.82530        0.44328
C          4.92896        2.95784       -0.44387
C          6.45773        3.01977       -0.51555
C          6.99061        4.15294       -1.39741
C          8.51985        4.22485       -1.44126
C          9.06364        5.35811       -2.31674
C         10.59308        5.44112       -2.32087
C         11.15261        6.56267       -3.20143
C         12.68319        6.62500       -3.20368
C         13.25836        7.73319       -4.09147
C         14.78961        7.73307       -4.14175
C         15.38256        8.83172       -5.03019
C         16.90875        8.75212       -5.14367
C         17.51818        9.83727       -6.03911
C         19.03831        9.68753       -6.19266
C         19.73543       10.82649       -6.97108
C         21.25856       10.70397       -6.89152
N         21.73089        9.48085       -7.69282
C         21.31679        9.60716       -9.16170
C         19.80532        9.78533       -9.26839
C         19.27158       10.97264       -8.44327
C         19.65281       12.31295       -9.12601
C         19.26171       13.55138       -8.33337
O         19.76304       13.84142       -7.25849
O         18.31752       14.26368       -8.96684
C         17.89742       15.52217       -8.33487
C         18.78719       16.67702       -8.76757
C         18.28621       18.01677       -8.21415
C         19.18185       19.19434       -8.61217
C         18.68773       20.54264       -8.08122
C         19.59374       21.71557       -8.46603
C         19.10168       23.06926       -7.94609
C         20.02095       24.22955       -8.33088
C         23.21588        9.18235       -7.54937
C         23.63551        8.72996       -6.11551
F         23.71773        9.78756       -5.27742
F         22.66720        7.87174       -5.66511
F         23.49215        8.15176       -8.38213
F         23.90212       10.26590       -7.93761
H          0.49473       -0.23812        2.16721
H          0.37437        0.44566        0.53391
H          0.43199        1.52128        1.94305
H          2.73394       -0.32922        1.03925
H          2.79020        0.74205        2.43554
H          2.49686        2.73160        0.91768
H          2.45191        1.65664       -0.47822
H          4.78219        0.85994        0.06292
H          4.82434        1.93476        1.45865
H          4.54335        3.92247       -0.06923
H          4.51918        2.84386       -1.46294
H          6.84422        2.05506       -0.88924
H          6.86425        3.13223        0.50512
H          6.59205        5.11604       -1.03250
H          6.59950        4.03307       -2.42312
H          8.91971        3.26154       -1.80441
H          8.90630        4.34315       -0.41351
H          8.64714        6.31977       -1.96884
H          8.70084        5.22770       -3.35145
H         11.00798        4.47481       -2.65803
H         10.95158        5.57827       -1.28558
H         10.74608        7.53169       -2.86278
H         10.79241        6.42800       -4.23649
H         13.08295        5.65094       -3.53681
H         13.04481        6.76179       -2.16955
H         12.90056        8.71414       -3.73322
H         12.86216        7.62120       -5.11609
H         15.13605        6.74909       -4.50432
H         15.19019        7.83625       -3.11822
H         15.09276        9.82122       -4.63688
H         14.93964        8.76291       -6.03932
H         17.18751        7.75785       -5.53583
H         17.35610        8.81794       -4.13692
H         17.29581       10.83338       -5.62050
H         17.02746        9.80028       -7.02570
H         19.23548        8.69705       -6.64946
H         19.48682        9.64451       -5.18550
H         19.52135       11.77159       -6.44858
H         21.59137       10.56081       -5.85785
H         21.77596       11.57129       -7.31836
H         21.24416        8.66079       -7.29132
H         21.65394        8.70023       -9.67416
H         21.87557       10.46620       -9.55400
H         19.30645        8.85199       -8.96539
H         19.57678        9.91657      -10.33643
H         18.17405       10.91241       -8.45184
H         19.18430       12.34627      -10.11811
H         20.74164       12.38905       -9.27618
H         17.91062       15.38551       -7.24535
H         16.86417       15.65418       -8.67993
H         18.81663       16.71547       -9.86827
H         19.81526       16.49220       -8.41841
H         18.22465       17.96193       -7.11374
H         17.25842       18.20152       -8.57106
H         19.25547       19.24014       -9.71265
H         20.20677       19.01041       -8.24564
H         18.60246       20.49308       -6.98150
H         17.66674       20.73075       -8.45676
H         19.68540       21.76081       -9.56563
H         20.61341       21.52902       -8.08505
H         19.00505       23.02253       -6.84833
H         18.08599       23.25817       -8.33217
H         21.03431       24.08500       -7.92767
H         19.64411       25.18711       -7.94681
H         20.11012       24.32139       -9.42354
H         24.60336        8.20582       -6.16168
