56

O          4.39783        2.32534       -5.20893
C          3.40387        1.38356       -4.76950
C          3.33108        1.44918       -3.26096
O          4.61159        1.05080       -2.74259
C          4.87975        1.42238       -1.39785
C          6.39597        1.59779       -1.31596
N          6.85214        2.43316       -2.48916
C          6.54094        3.89827       -2.30295
C          6.38425        4.58488       -3.66467
C          5.57918        5.88269       -3.60912
C          6.16118        7.02586       -2.71127
Br         8.01960        7.46472       -3.15248
F          5.40607        8.12854       -2.79183
F          6.12492        6.59930       -1.41353
Br         5.34256        6.54899       -5.43473
F          4.32735        5.60649       -3.08645
C          8.30493        2.18266       -2.86670
C          8.49832        0.90236       -3.66880
C          7.80598        0.87144       -5.04485
C          8.23448        1.96141       -6.05079
C          9.75037        2.16877       -6.21160
C         10.49290        0.91455       -6.67514
O         11.92725        1.09149       -6.61462
C         12.49459        0.90499       -5.38721
O         11.85193        0.64119       -4.38092
C         13.96400        1.06326       -5.47139
C         14.73926        0.89475       -4.39399
H          4.34143        2.40452       -6.17347
H          3.66846        0.36094       -5.08924
H          2.40996        1.63212       -5.17657
H          2.53777        0.77733       -2.89170
H          3.10519        2.48077       -2.93625
H          4.56292        0.64428       -0.68247
H          4.34380        2.35225       -1.13629
H          6.89595        0.62618       -1.40635
H          6.71629        2.08148       -0.38474
H          6.24621        2.08686       -3.26507
H          7.34255        4.32686       -1.68883
H          5.60327        3.96255       -1.73989
H          5.81187        3.92211       -4.33237
H          7.35277        4.79625       -4.13305
H          8.87479        2.17164       -1.92782
H          8.62856        3.05924       -3.44137
H          8.17234        0.03036       -3.08007
H          9.58737        0.77859       -3.78621
H          6.70871        0.91668       -4.93364
H          7.99848       -0.12328       -5.47268
H          7.78542        2.92960       -5.77722
H          7.78925        1.71087       -7.02698
H         10.19328        2.49720       -5.25922
H          9.93114        2.98014       -6.93163
H         10.28430        0.69279       -7.72981
H         10.22979        0.03764       -6.06736
H         14.37411        1.31113       -6.45089
H         14.30083        0.63966       -3.42800
H         15.82184        1.00110       -4.45126
