78

C          8.36425       -1.42669       -8.46292
C          7.36122       -2.19110       -7.62410
O          7.27814       -1.56384       -6.32486
C          6.35978       -2.17875       -5.44240
C          6.43183       -1.37855       -4.14787
N          6.28598        0.09287       -4.45721
C          4.84304        0.47832       -4.72085
C          4.70819        1.46505       -5.86787
C          3.22384        1.80569       -6.14132
N          3.20664        2.99279       -6.99790
O          5.41447        2.64814       -5.55224
C          6.95455        0.99803       -3.44076
C          8.46579        0.91568       -3.59504
O          8.74531        1.18398       -4.95781
C         10.03499        0.71306       -5.37745
C         10.34792        1.32098       -6.73907
O         11.40634        0.52926       -7.25972
C         12.14011        1.02152       -8.32303
C         11.76385        2.11291       -9.11264
C         12.60187        2.52526      -10.15228
C         13.81984        1.88821      -10.43476
C         14.14729        0.77361       -9.64552
C         13.32867        0.34301       -8.60430
C         14.72889        2.39838      -11.56522
C         15.03922        3.92431      -11.41815
C         15.86931        4.54646      -10.25276
C         17.37252        4.20892      -10.34215
C         15.72803        6.07636      -10.41533
C         15.34925        4.16010       -8.85497
C         16.01532        1.56180      -11.69491
C         13.95563        2.24016      -12.90115
H          8.44582       -1.89033       -9.45488
H          9.36107       -1.43396       -8.00308
H          8.04929       -0.38392       -8.60387
H          7.66800       -3.24374       -7.49208
H          6.35803       -2.18587       -8.08942
H          6.62853       -3.22868       -5.22367
H          5.33816       -2.18589       -5.87255
H          7.41549       -1.51763       -3.68545
H          5.65443       -1.66373       -3.42787
H          6.84266        0.23162       -5.33086
H          4.44532        0.89724       -3.78655
H          4.29204       -0.44062       -4.95780
H          5.13714        0.99413       -6.78114
H          2.73906        2.06634       -5.18867
H          2.69815        0.92980       -6.55991
H          3.23459        2.75499       -7.98897
H          2.38111        3.56652       -6.84144
H          4.95273        3.33547       -6.09387
H          6.62083        0.70519       -2.43679
H          6.60447        2.01072       -3.67366
H          8.85925       -0.07486       -3.29844
H          8.92927        1.66189       -2.92383
H         10.02211       -0.38816       -5.46111
H         10.80703        1.00112       -4.64450
H         10.65116        2.37656       -6.63931
H          9.45066        1.27892       -7.38353
H         10.83236        2.64946       -8.93235
H         12.28895        3.38672      -10.74401
H         15.07475        0.23154       -9.82351
H         13.60977       -0.51090       -7.98711
H         14.06850        4.44702      -11.42843
H         15.53576        4.22840      -12.35586
H         17.76786        4.39503      -11.35166
H         17.58676        3.16477      -10.08405
H         17.94149        4.83769       -9.64156
H         16.10215        6.41111      -11.39450
H         16.30230        6.60504       -9.64064
H         14.67742        6.39211      -10.33132
H         15.46458        3.08798       -8.64963
H         14.28484        4.40727       -8.73429
H         15.91047        4.70954       -8.08422
H         16.58989        1.50702      -10.76279
H         16.66992        2.00107      -12.45977
H         15.78717        0.53326      -12.01014
H         13.04519        2.85498      -12.92204
H         13.65972        1.19277      -13.05394
H         14.58606        2.54626      -13.74878
