63

C          1.24622       -1.10763       -0.42386
C          2.71605       -0.68653       -0.35214
C          3.00416        0.33704        0.75188
C          4.47509        0.75825        0.82710
C          4.78222        1.74463        1.95894
C          6.25982        2.14431        2.02716
C          6.61457        3.03854        3.22023
C          8.10326        3.39784        3.27275
C          8.52692        4.16066        4.53329
C         10.03325        4.44099        4.57214
C         10.53757        4.99803        5.91044
C         12.06205        5.16296        5.91140
C         12.72789        5.52961        7.23905
C         12.52783        4.52432        8.39353
N         12.48359        5.39818        9.59152
C         12.18576        6.67497        9.20299
N         11.91019        7.70141       10.00996
C         12.43234        7.92758       11.36879
C         13.59707        8.91406       11.30563
O         13.10011       10.08927       10.64417
C         14.00996       10.80512        9.83396
C         14.08140       10.23808        8.41151
F         12.82548       10.05243        7.88446
F         14.75781       11.05281        7.59100
F         14.67883        9.00560        8.36758
N         12.21748        6.77654        7.86277
Br        11.63101        4.64354       11.09905
H          1.07429       -1.83508       -1.22916
H          0.59112       -0.24427       -0.61215
H          0.91731       -1.57177        0.51774
H          3.02844       -0.26852       -1.32419
H          3.34673       -1.57746       -0.19182
H          2.69397       -0.08211        1.72565
H          2.37402        1.23036        0.59503
H          4.77769        1.20172       -0.13794
H          5.10349       -0.14125        0.95354
H          4.48164        1.29532        2.92204
H          4.15992        2.64891        1.84067
H          6.54569        2.65196        1.08926
H          6.87715        1.22935        2.07243
H          6.33038        2.52317        4.15490
H          6.00981        3.96148        3.18777
H          8.37040        3.98665        2.37801
H          8.69665        2.46855        3.20758
H          8.24486        3.56855        5.42197
H          7.96595        5.10797        4.60853
H         10.30344        5.13435        3.75764
H         10.57412        3.50244        4.35867
H         10.22183        4.30961        6.71310
H         10.05157        5.96307        6.12983
H         12.35675        5.91896        5.16460
H         12.53790        4.22659        5.57379
H         13.80939        5.66666        7.06938
H         13.35119        3.80793        8.48154
H         11.57689        3.98009        8.29632
H         11.70510        8.57880        9.53014
H         12.75556        6.98352       11.81816
H         11.61574        8.33469       11.97960
H         14.44260        8.47250       10.75736
H         13.92731        9.16739       12.32672
H         15.03207       10.83346       10.24589
H         13.63463       11.83481        9.75601
H         12.41628        7.67808        7.43192
