89

C          2.27517        0.41979       -1.52179
C          3.28862       -0.12611       -0.51345
C          3.43526        0.74777        0.73795
C          4.44609        0.19132        1.74526
C          4.62525        1.06515        2.99260
C          5.59571        0.43497        4.00070
C          5.83553        1.33131        5.21778
S          6.92922        0.39271        6.35855
C          7.44789        1.61712        7.43466
N          7.14104        2.91224        7.48998
N          7.85662        3.43363        8.52295
C          8.55689        2.45482        9.05672
O          8.34070        1.25990        8.40769
C          9.50335        2.45719       10.13420
N          9.75493        3.47113       10.95709
C          9.00048        4.73546       11.02674
C          8.27167        4.87759       12.37001
C          7.21050        5.97928       12.27575
S          6.09809        5.99902       13.69999
C          4.96271        4.65957       13.29421
S          5.07525        3.77681       11.87907
N          4.01722        4.47091       14.24270
C          3.90405        5.23573       15.49063
C          3.85667        4.27257       16.68106
O          2.80269        3.32821       16.54940
C          2.95342        2.56449       15.35358
C          2.96497        3.45400       14.11190
C         10.91634        3.25678       11.84532
C         11.10158        1.74428       11.97057
S         10.45355        1.03689       10.40892
C         12.16356        3.98264       11.27121
O         13.28286        3.77609       12.10472
C         13.31362        4.36824       13.36471
C         12.42915        5.38312       13.74363
C         12.48420        5.95404       15.02480
C         11.53387        7.05972       15.40828
C         13.45554        5.47936       15.90960
C         14.34530        4.47830       15.51283
C         14.31033        3.89128       14.24334
C         15.34282        2.83262       13.87878
C         14.74184        1.46503       13.49993
C         16.33386        3.33138       12.80886
H          2.19661       -0.23141       -2.40285
H          2.56062        1.42185       -1.87427
H          1.27189        0.49881       -1.07782
H          4.27370       -0.22887       -0.99926
H          2.99496       -1.14532       -0.21020
H          2.45093        0.85387        1.22700
H          3.73575        1.76726        0.43862
H          5.42442        0.06632        1.24905
H          4.13242       -0.82146        2.05328
H          3.64724        1.22774        3.47658
H          4.99272        2.06251        2.69675
H          6.55860        0.22633        3.50709
H          5.19389       -0.53868        4.32821
H          4.90774        1.56409        5.75661
H          6.34256        2.26855        4.95623
H          8.28287        4.73776       10.19904
H          9.70813        5.56168       10.85489
H          8.96916        5.09362       13.19313
H          7.76122        3.92799       12.58541
H          6.58786        5.84448       11.37902
H          7.65424        6.98579       12.26123
H          2.98090        5.83785       15.45333
H          4.75373        5.91907       15.60247
H          3.66594        4.82970       17.60780
H          4.83110        3.75254       16.77208
H          2.10008        1.87487       15.31597
H          3.88803        1.97157       15.39673
H          1.99600        3.97033       14.00710
H          3.15977        2.87364       13.20273
H         10.68723        3.68095       12.83202
H         10.52771        1.31388       12.80039
H         12.15804        1.47437       12.08059
H         11.94755        5.05253       11.11824
H         12.43697        3.55209       10.29715
H         11.69011        5.76899       13.03913
H         10.50543        6.84285       15.08397
H         11.82831        8.01336       14.94370
H         11.51916        7.21363       16.49413
H         13.52313        5.89479       16.91603
H         15.10313        4.13040       16.21801
H         15.92199        2.67332       14.80279
H         14.30329        1.48627       12.49268
H         13.96937        1.15214       14.21682
H         15.52721        0.69667       13.49694
H         15.83329        3.51244       11.84809
H         17.12313        2.58438       12.64345
H         16.81418        4.26702       13.12400
