76

C          5.65064       -2.36781       16.25109
C          5.42251       -2.89462       14.83243
C          6.54170       -2.51786       13.85516
C          6.31249       -3.03403       12.43144
C          7.44055       -2.67659       11.45942
C          7.22436       -3.21686       10.04146
C          8.36289       -2.83041        9.09103
C          8.18952       -3.42907        7.70473
O          9.24878       -2.96435        6.79273
C         10.41348       -3.62721        6.85085
O         10.66614       -4.57130        7.56875
C         11.42564       -3.03335        5.84969
C         12.72434       -2.74091        6.54599
C         13.53216       -3.83830        6.92367
N         14.66090       -3.72651        7.60708
N         15.01633       -2.49144        7.92373
C         14.36011       -1.35713        7.61855
C         13.14710       -1.44934        6.89188
C         12.36497       -0.20923        6.51986
C         11.08614        0.06432        7.35151
P         11.30190        0.18302        9.15209
O         12.34769        1.14973        9.59584
O          9.84603        0.46759        9.74294
C          9.47807        1.76373       10.33012
C          9.18886        2.80911        9.27146
O         11.56639       -1.35503        9.50490
C         11.66987       -1.81445       10.89147
C         12.25737       -3.20962       10.87164
C         14.98692       -0.11166        8.16517
C         15.25064       -0.15864        9.71954
C         16.69996       -0.52759       10.06785
N         17.02395       -1.91733        9.65042
O         15.00674        1.09510       10.29597
H          4.83095       -2.65597       16.92288
H          5.71947       -1.26985       16.26420
H          6.58403       -2.76270       16.67970
H          4.46235       -2.51219       14.44696
H          5.31992       -3.99261       14.85771
H          7.50227       -2.90972       14.23544
H          6.65203       -1.41874       13.83375
H          5.35921       -2.63236       12.04590
H          6.18887       -4.13079       12.45581
H          8.39511       -3.07141       11.85235
H          7.55989       -1.57899       11.41805
H          6.26492       -2.84132        9.64679
H          7.12993       -4.31534       10.08128
H          9.31933       -3.17843        9.50753
H          8.42565       -1.73400        9.01039
H          7.26637       -3.09015        7.21835
H          8.21393       -4.52682        7.72580
H         10.99855       -2.15631        5.35597
H         11.58315       -3.80912        5.08455
H         13.24320       -4.85930        6.67397
H         15.92075       -2.38818        8.54321
H         12.06591       -0.29039        5.46417
H         13.01993        0.66762        6.57549
H         10.30874       -0.69133        7.17167
H         10.66781        1.03124        7.03519
H         10.28529        2.07860       11.00435
H          8.58696        1.53065       10.92567
H         10.09676        3.08127        8.71556
H          8.81466        3.72188        9.75572
H          8.42169        2.46166        8.56668
H         10.65857       -1.80408       11.32364
H         12.29969       -1.10904       11.45483
H         11.64377       -3.88864       10.26507
H         12.30238       -3.60605       11.89508
H         13.27663       -3.20927       10.46074
H         14.33942        0.74982        7.98692
H         15.93310        0.08634        7.63622
H         14.57809       -0.93048       10.14989
H         16.83893       -0.37914       11.14752
H         17.37510        0.17023        9.55347
H         16.91089       -2.55996       10.43670
H         18.00050       -1.99151        9.36431
H         14.04394        1.27757       10.17967
