63

C          1.59192        2.06428        3.26250
C          3.05813        1.74954        2.95832
C          3.29959        0.27579        2.60844
C          4.77757       -0.03560        2.33381
C          4.98156       -1.48775        1.93443
O          6.40688       -1.75367        1.64500
C          7.15486       -2.18921        2.64839
O          6.79494       -2.43981        3.78622
C          8.61983       -2.34895        2.21697
N          9.31143       -2.89938        3.37152
C         10.47990       -3.54642        3.39917
N         10.79090       -4.41812        4.37632
C         12.19148       -4.84235        4.28426
C         12.56905       -4.40102        2.85112
N         11.49250       -3.40944        2.51887
C         11.83267       -2.14416        1.84535
C         12.09392       -1.00655        2.83780
O         13.06821       -1.43559        3.76606
Si        13.19560       -0.86155        5.35478
C         14.63575       -1.82578        6.05841
C         13.51322        0.98399        5.33781
C         11.59324       -1.24869        6.26883
C         12.59806       -5.57013        1.86238
C         12.94093       -5.19554        0.41701
C         12.94678       -6.40130       -0.50991
F         11.65824       -6.96389       -0.55702
H          1.45396        3.12846        3.49557
H          1.22813        1.48589        4.12444
H          0.94414        1.82596        2.40608
H          3.68179        2.02170        3.82648
H          3.40738        2.38037        2.12394
H          2.69380        0.00821        1.72543
H          2.93633       -0.36121        3.43289
H          5.37272        0.18028        3.23594
H          5.15639        0.61590        1.53017
H          4.47878       -1.73145        0.99074
H          4.65722       -2.18389        2.71836
H          9.00017       -1.35673        1.92594
H          8.68468       -3.01157        1.34152
H          8.66852       -2.99578        4.16802
H         10.09662       -4.86719        4.96204
H         12.27417       -5.92855        4.41071
H         12.79670       -4.34206        5.05411
H         13.52241       -3.85791        2.85936
H         11.05147       -1.86314        1.12496
H         12.74070       -2.34330        1.26513
H         11.15091       -0.71728        3.33956
H         12.44172       -0.12628        2.26752
H         15.54474       -1.66192        5.46376
H         14.43640       -2.90615        6.08500
H         14.84682       -1.50478        7.08818
H         14.44887        1.21973        4.81269
H         13.59643        1.37181        6.36303
H         12.69821        1.53338        4.84534
H         11.38890       -2.32831        6.28908
H         10.72444       -0.74183        5.82487
H         11.66446       -0.90706        7.31147
H         11.62525       -6.08788        1.88775
H         13.34534       -6.29033        2.23681
H         13.93685       -4.72353        0.36581
H         12.21656       -4.46650        0.02049
H         13.63308       -7.18826       -0.15772
H         13.22077       -6.11802       -1.53656
