60

C          2.89094       -0.69659        0.74584
C          3.40100       -1.22073       -0.59821
C          4.01629       -0.11371       -1.46631
C          4.53492       -0.66571       -2.78358
O          5.03510        0.41577       -3.65787
C          6.31080        0.75725       -3.53110
O          7.13846        0.26979       -2.78181
C          6.66804        1.90206       -4.49257
N          8.06291        2.21465       -4.25358
C          8.72608        3.29255       -4.70758
N          9.97958        3.52858       -4.28151
C         10.78983        4.67288       -4.72568
C         10.35794        5.10976       -6.13669
C          8.83218        5.34460       -6.09923
N          8.16697        4.12272       -5.59818
Si         7.91974        6.06088       -7.66247
C          7.98658        4.95549       -9.18524
C          6.12223        6.21887       -7.10465
C          8.69125        7.74340       -7.97326
C         10.83121        4.13150       -7.22581
C         12.34127        4.15671       -7.46132
O         12.61026        3.33646       -8.57934
C         14.00004        3.30195       -8.92911
C         14.16410        2.45568      -10.17623
H          2.45121       -1.50542        1.34373
H          2.11791        0.07308        0.60679
H          3.70515       -0.25063        1.33517
H          2.57271       -1.69744       -1.14773
H          4.15110       -2.00973       -0.42581
H          4.84363        0.36678       -0.92013
H          3.26157        0.66276       -1.66981
H          3.73552       -1.12367       -3.37882
H          5.34826       -1.38782       -2.63553
H          6.00435        2.75697       -4.28101
H          6.48040        1.56606       -5.52609
H          8.48089        1.59759       -3.54908
H         10.36719        2.90053       -3.58654
H         11.84055        4.35591       -4.70728
H         10.67714        5.50492       -4.01328
H         10.82298        6.09208       -6.31654
H          8.65231        6.14210       -5.35080
H          7.22448        3.91321       -5.90879
H          7.79008        3.89895       -8.95362
H          8.94791        5.01018       -9.71240
H          7.20849        5.28310       -9.89083
H          5.62638        5.24544       -6.96330
H          5.54303        6.74226       -7.87919
H          6.01931        6.79268       -6.17297
H          9.74643        7.66479       -8.27027
H          8.63112        8.39215       -7.08808
H          8.16157        8.25310       -8.79082
H         10.35253        4.38576       -8.17957
H         10.52314        3.09975       -6.99343
H         12.90228        3.79312       -6.57432
H         12.67961        5.19787       -7.65107
H         14.58355        2.88362       -8.08585
H         14.36100        4.33424       -9.10291
H         13.81709        1.42875      -10.00232
H         15.22231        2.41686      -10.46684
H         13.59312        2.87934      -11.01284
