35

O          1.52764       -0.39441       -3.00859
C          1.63072       -0.26873       -1.58173
C          2.89130       -1.00348       -1.13993
N          4.15120       -0.36295       -1.52900
C          4.83942       -0.58489       -2.67647
N          4.17917       -1.10546       -3.72730
C          4.72436       -1.84754       -4.88839
C          5.36727       -0.94299       -5.94871
O          6.63361       -0.46317       -5.46472
C          5.60712       -3.03064       -4.47132
N          6.14280       -0.29195       -2.75357
C          7.02311        0.08081       -1.64734
C          7.17787        1.58357       -1.52192
O          7.94957        2.19837       -2.56208
C          8.47927        2.20154       -1.22165
H          0.78059        0.13237       -3.33213
H          0.76179       -0.73310       -1.08599
H          1.68088        0.79213       -1.28346
H          2.88050       -2.02862       -1.53872
H          2.88987       -1.08044       -0.04421
H          4.56776        0.27357       -0.86034
H          3.16335       -0.95958       -3.70110
H          3.82293       -2.25301       -5.37286
H          4.69274       -0.10147       -6.17587
H          5.51289       -1.53649       -6.86643
H          7.01205        0.16143       -6.10290
H          6.54594       -2.71379       -4.00313
H          5.86602       -3.62382       -5.35761
H          5.06670       -3.68071       -3.77253
H          6.52504       -0.22935       -3.71321
H          8.00638       -0.36848       -1.84553
H          6.64867       -0.35873       -0.70986
H          6.26827        2.14098       -1.25835
H          8.50551        3.18031       -0.73567
H          9.35735        1.56726       -1.06679
