78

C         -0.10777       -0.20808        0.37662
C          1.40543       -0.27119        0.15818
C          1.98951       -1.67017        0.38892
C          3.49977       -1.74028        0.13403
C          4.05606       -3.13746        0.34250
O          5.45976       -3.13284        0.02055
C          6.05124       -4.40121        0.12806
C          7.49567       -4.23884       -0.34535
C          8.30038       -5.49852       -0.45108
C          7.75745       -6.72784       -0.00357
N          8.36889       -7.89762       -0.10370
N          9.56939       -7.85743       -0.65908
C         10.24240       -6.77504       -1.10636
C          9.59811       -5.52055       -1.00725
C         10.28287       -4.26850       -1.48688
C         11.27181       -3.71427       -0.43616
C         11.99370       -2.47882       -0.96523
C         13.06897       -1.84140       -0.00493
C         14.25630       -2.72556        0.55926
C         15.25967       -3.49270       -0.39158
C         16.16813       -2.74374       -1.44732
C         17.23562       -1.66562       -0.99840
C         18.41099       -2.02788       -0.00272
C         19.39812       -3.19466       -0.38199
F         19.86360       -3.04288       -1.63210
F         20.43051       -3.16643        0.47699
F         18.79049       -4.39033       -0.28040
F         19.14960       -0.89567        0.09964
F         17.88041       -2.30909        1.21653
F         17.79571       -1.22711       -2.15248
F         16.56063       -0.63169       -0.43016
F         16.81780       -3.71941       -2.12605
F         15.33557       -2.10629       -2.31205
F         16.05755       -4.21929        0.42713
F         14.50444       -4.38071       -1.11831
F         14.96610       -1.93755        1.39037
F         13.67928       -3.72053        1.31715
F         13.59198       -0.75690       -0.61520
F         12.39083       -1.42808        1.10783
F         12.58916       -2.75435       -2.16753
F         11.07857       -1.48314       -1.19798
C         11.61743       -7.04615       -1.64287
C         12.66478       -7.29226       -0.52681
C         14.04575       -7.59305       -1.12128
C         15.11026       -7.66569       -0.02299
S         16.73424       -7.95119       -0.77940
O         16.79121       -9.30615       -1.27464
O         17.06156       -6.82324       -1.62028
Cl        17.93873       -7.84010        0.90895
H         -0.49533        0.80411        0.20056
H         -0.37689       -0.49164        1.40485
H         -0.63898       -0.88949       -0.30420
H          1.90810        0.44625        0.82807
H          1.64473        0.05431       -0.86810
H          1.47172       -2.39071       -0.26824
H          1.77046       -1.99015        1.42253
H          4.03047       -1.03991        0.79853
H          3.72018       -1.42517       -0.89866
H          3.53909       -3.86831       -0.30981
H          3.92180       -3.46934        1.39022
H          5.51595       -5.13943       -0.50799
H          6.00948       -4.77380        1.17398
H          8.01257       -3.52092        0.31567
H          7.46924       -3.74365       -1.33145
H          6.77134       -6.78390        0.45529
H         10.00573       -8.77913       -0.74156
H          9.53505       -3.50315       -1.72372
H         10.82560       -4.47261       -2.41967
H         12.02215       -4.46811       -0.17684
H         10.75417       -3.43752        0.49233
H         11.94210       -6.20926       -2.27321
H         11.57190       -7.92877       -2.30239
H         12.34093       -8.12666        0.11720
H         12.72175       -6.40788        0.12576
H         14.32171       -6.80511       -1.83687
H         14.01736       -8.54143       -1.67924
H         14.95426       -8.49731        0.67715
H         15.20219       -6.72417        0.53373
