29

F          1.21111       -0.74121        0.76161
C          2.53086       -0.29667        0.72375
C          2.90882       -0.09684       -0.74271
C          4.31195        0.39251       -0.96184
N          5.04831        0.54254        0.12102
N          6.31454        0.95598       -0.02983
C          6.93621        1.22676       -1.20319
C          6.15680        1.06927       -2.37353
C          4.84302        0.66338       -2.28131
C          3.99027        0.56350       -3.50625
C          3.23109        1.90474       -3.78472
C          2.29628        1.77204       -4.93010
C          2.42415        2.35171       -6.13148
F          3.44325        3.14851       -6.44360
F          1.57075        2.21906       -7.12492
F          1.22743        0.96254       -4.71641
N          8.22000        1.61993       -1.20657
H          3.16267       -1.05340        1.21190
H          2.59383        0.64198        1.29476
H          2.19255        0.60448       -1.20161
H          2.77344       -1.05142       -1.27949
H          6.80923        1.04767        0.85788
H          6.61473        1.27501       -3.34188
H          3.25436       -0.24478       -3.40197
H          4.61635        0.33062       -4.37786
H          3.95387        2.70436       -3.99332
H          2.66073        2.20695       -2.89186
H          8.76559        1.72370       -0.35853
H          8.68748        1.82500       -2.08135
