87

C          1.49250       -1.39266        0.27281
C          2.97967       -1.49752        0.61885
C          3.40782       -0.55605        1.75109
C          4.89515       -0.66224        2.10234
C          5.33209        0.29835        3.21475
C          6.82362        0.16968        3.55386
C          7.27003        1.16614        4.60743
O          8.68859        0.97383        4.83435
C          9.24762        1.93331        5.69223
C         10.69897        1.59748        5.83693
N         11.63716        2.49083        5.75661
C         13.02870        1.95787        5.81559
C         12.76719        0.53410        6.35038
C         11.27828        0.23736        6.03118
C         10.56143       -0.65575        7.05142
C         11.16774       -2.05798        6.98096
O         11.67037       -2.51186        5.96987
O         11.06358       -2.68759        8.15614
C         11.60276       -4.05454        8.21064
C         11.62994       -4.49013        9.66228
C         12.21640       -5.90002        9.81613
C         12.30137       -6.36013       11.27571
C         12.92143       -7.75179       11.43616
C         13.02955       -8.21017       12.89417
C         13.66801       -9.59433       13.05590
C         13.77224      -10.04627       14.51476
C         13.66956        2.04127        4.42025
C         15.16048        1.68116        4.43701
C         15.78351        1.69113        3.02727
C         17.25381        1.34072        3.05439
C         17.67293        0.00651        2.94841
C         19.02828       -0.32474        3.01341
C         19.98617        0.67801        3.18572
C         19.58107        2.01142        3.29009
C         18.22479        2.33853        3.22495
H          1.22022       -2.08045       -0.53896
H          1.22725       -0.37530       -0.05101
H          0.86141       -1.63754        1.14020
H          3.58333       -1.28085       -0.27913
H          3.22096       -2.53680        0.90021
H          2.80251       -0.76746        2.65039
H          3.17207        0.48491        1.46681
H          5.49859       -0.46650        1.19852
H          5.12768       -1.69880        2.40302
H          4.72756        0.11281        4.11915
H          5.11107        1.33476        2.90609
H          7.42761        0.32615        2.64568
H          7.04322       -0.85005        3.90888
H          6.72916        1.02344        5.56179
H          7.09865        2.20542        4.26947
H          8.79692        1.90654        6.71125
H          9.11882        2.96805        5.31338
H         11.44656        3.46996        5.53410
H         13.59715        2.57599        6.52576
H         12.92460        0.50125        7.43782
H         13.43281       -0.20510        5.89429
H         11.18476       -0.28070        5.05461
H          9.49347       -0.74930        6.79949
H         10.63470       -0.25989        8.07371
H         12.60402       -4.04261        7.75724
H         10.95655       -4.69510        7.59242
H         10.60895       -4.45796       10.07509
H         12.23076       -3.77123       10.24263
H         13.22516       -5.92823        9.36851
H         11.60813       -6.61867        9.24030
H         11.29182       -6.35312       11.72188
H         12.89274       -5.62829       11.85331
H         13.92590       -7.75704       10.97743
H         12.32573       -8.48561       10.86558
H         12.02435       -8.21653       13.35150
H         13.61615       -7.47023       13.46697
H         14.67269       -9.58486       12.59988
H         13.08370      -10.33284       12.48098
H         14.38321       -9.34857       15.10685
H         14.23236      -11.04039       14.59603
H         12.78081      -10.09997       14.98882
H         13.54924        3.06531        4.02753
H         13.12162        1.37451        3.73292
H         15.30836        0.68319        4.88009
H         15.70698        2.38840        5.08218
H         15.64587        2.68641        2.57477
H         15.24231        0.97556        2.38778
H         16.93051       -0.78204        2.80164
H         19.33797       -1.36645        2.92032
H         21.04485        0.42083        3.23207
H         20.32381        2.80046        3.41456
H         17.91684        3.38468        3.29666
