89

C          1.40643       -0.70258        1.95410
C          2.90561       -0.49864        1.72234
C          3.23131        0.84837        1.06824
C          4.72211        1.04610        0.77574
C          5.00353        2.40300        0.09608
C          6.42166        2.55282       -0.40629
C          7.28142        3.27390        0.41505
C          8.65960        3.49526        0.15441
C          9.44052        4.37208        1.09447
C          9.00521        5.85815        0.96010
C          9.09281        6.66803        2.26224
P          7.94565        6.02111        3.53489
O          6.84691        5.17391        3.00461
O          8.80534        5.16962        4.60079
C          9.87017        5.77068        5.39478
C          9.85556        5.15423        6.77924
O          7.51128        7.37814        4.27452
C          6.48018        7.33496        5.31428
C          6.12146        8.76072        5.67411
C          9.19797        2.92348       -0.97612
C          8.37252        2.17956       -1.85844
C          6.94990        1.98925       -1.61657
C          6.21406        1.27217       -2.63086
C          6.88594        0.77413       -3.72564
N          8.23060        0.95343       -3.88254
C          8.96621        1.63587       -3.00174
C          4.71968        1.06567       -2.66413
C          3.97713        2.35962       -3.02211
O          4.49839        3.32156       -3.54720
O          2.68550        2.25620       -2.66909
C          1.85278        3.44427       -2.88520
C          0.57664        3.26683       -2.08425
C         -0.29461        4.52934       -2.11658
C         -1.60825        4.37452       -1.34230
C         -2.44620        5.65684       -1.30611
C         -3.78511        5.49435       -0.57926
C         -4.60679        6.78659       -0.50783
C         -5.95507        6.60968        0.19514
H          1.20110       -1.67518        2.42050
H          0.84742       -0.66373        1.00728
H          0.99421        0.07505        2.61366
H          3.29502       -1.31353        1.08818
H          3.44467       -0.57822        2.68090
H          2.87549        1.66820        1.71585
H          2.66136        0.94407        0.12613
H          5.09054        0.21660        0.14685
H          5.30765        0.98702        1.70750
H          4.82951        3.20207        0.83039
H          4.26779        2.57867       -0.69703
H          6.87255        3.72193        1.32768
H         10.51985        4.26982        0.91385
H          9.25152        4.02187        2.12079
H          7.96585        5.89694        0.60441
H          9.61589        6.34412        0.18496
H          8.80780        7.71279        2.07623
H         10.11607        6.68402        2.66726
H          9.72405        6.86076        5.44342
H         10.82330        5.56969        4.88022
H          8.91207        5.37003        7.29755
H         10.67905        5.56712        7.37817
H          9.98046        4.06520        6.72567
H          6.88194        6.78660        6.18060
H          5.61630        6.77978        4.92105
H          6.99812        9.30850        6.04403
H          5.35850        8.76081        6.46469
H          5.71610        9.29496        4.80513
H         10.25599        3.04257       -1.21833
H          6.38619        0.23193       -4.52462
H          8.67988        0.56549       -4.71032
H         10.02779        1.74512       -3.21836
H          4.32122        0.65864       -1.72941
H          4.47014        0.32850       -3.44228
H          1.66346        3.53747       -3.96495
H          2.42837        4.32421       -2.56390
H          0.84261        3.02618       -1.04176
H          0.01240        2.40452       -2.47369
H         -0.51876        4.80046       -3.16273
H          0.27742        5.37644       -1.69973
H         -1.38733        4.05417       -0.30899
H         -2.20181        3.55931       -1.79107
H         -2.63172        6.00263       -2.33836
H         -1.86154        6.45851       -0.82080
H         -3.60426        5.12119        0.44452
H         -4.38029        4.71238       -1.08326
H         -4.77062        7.16885       -1.52971
H         -4.01808        7.56151        0.01224
H         -6.57714        5.86063       -0.31712
H         -6.52248        7.55004        0.21990
H         -5.82380        6.27382        1.23460
