48

C          0.36279        0.14509        0.04490
C          1.83777       -0.19550        0.26933
C          2.57441        0.84424        1.12106
C          4.05739        0.52417        1.33313
C          4.79981        1.59211        2.14221
C          6.29445        1.30383        2.30360
C          7.04220        2.42018        3.05178
C          8.57108        2.30287        2.93799
O          9.25473        2.67032        4.15638
C          9.35609        4.05932        4.15406
N          9.78533        4.37633        2.73320
C          9.27552        3.24021        1.87159
C         10.44586        2.54331        1.12711
C         11.73322        2.44337        1.93495
O         12.20445        3.39831        2.55286
O         12.29609        1.24990        1.84953
C         13.58452        1.08557        2.52379
C          8.31549        3.91972        0.84525
O          8.10878        5.11706        0.97056
C          7.71748        3.12097       -0.27524
H         -0.13517       -0.61582       -0.57054
H          0.24911        1.11207       -0.46735
H         -0.18258        0.21014        0.99776
H          2.34688       -0.29124       -0.70488
H          1.92055       -1.18408        0.75124
H          2.07534        0.93450        2.10156
H          2.48091        1.83612        0.64378
H          4.54827        0.40844        0.34976
H          4.15643       -0.45346        1.83555
H          4.33555        1.69643        3.13766
H          4.67209        2.57381        1.65050
H          6.73562        1.14530        1.30599
H          6.44159        0.35403        2.84354
H          6.79841        2.36243        4.12340
H          6.68413        3.40612        2.71308
H          8.85421        1.25726        2.75633
H         10.12959        4.37500        4.86287
H          8.40343        4.58122        4.34472
H         10.84432        4.36300        2.67865
H          9.34245        5.23953        2.34396
H         10.71120        3.11883        0.22418
H         10.13200        1.54822        0.79407
H         13.83226        0.02951        2.39649
H         13.48567        1.34651        3.58314
H         14.33301        1.72687        2.04457
H          8.03397        2.07409       -0.29961
H          7.97610        3.60969       -1.22561
H          6.62226        3.16700       -0.18978
