63

C          4.33416       -1.77149        2.22097
C          5.08323       -0.76523        1.37120
O          5.12907       -1.26172        0.02054
C          5.83980       -0.42724       -0.85470
C          5.82886       -1.01261       -2.23715
C          6.48752       -0.37873       -3.29971
C          6.45838       -0.94894       -4.55234
N          5.82501       -2.12699       -4.79671
C          5.17549       -2.78184       -3.78213
C          5.17016       -2.20980       -2.51137
C          4.50762       -4.10825       -4.01536
C          5.50368       -5.29766       -4.02288
C          6.17994       -5.55118       -2.66928
S          7.67540       -6.55524       -2.84144
C          8.93052       -5.29510       -3.13006
S          8.63980       -3.65388       -2.94171
N         10.12504       -5.81132       -3.48421
C         10.36075       -7.25255       -3.68811
C         10.15375       -7.68772       -5.14079
C         11.29292       -4.93909       -3.70328
C         12.10930       -4.71724       -2.42984
C          5.78171       -2.65635       -6.20176
C          6.95098       -2.28436       -7.12749
C          8.33158       -2.79975       -6.65412
C          8.55567       -4.31436       -6.71905
C          6.58064       -2.77190       -8.53979
H          4.28121       -1.41810        3.25915
H          4.84288       -2.74453        2.21657
H          3.30796       -1.90821        1.85472
H          6.11556       -0.61959        1.74028
H          4.58021        0.21978        1.37896
H          6.89623       -0.30108       -0.53326
H          5.40163        0.59365       -0.89419
H          7.02323        0.56026       -3.16275
H          6.94082       -0.48122       -5.40461
H          4.64754       -2.72287       -1.70666
H          3.93534       -4.10161       -4.95318
H          3.77365       -4.24912       -3.20998
H          6.28888       -5.11701       -4.76898
H          4.96308       -6.19666       -4.35124
H          5.52947       -6.10592       -1.97889
H          6.50673       -4.61557       -2.18867
H          9.71265       -7.82344       -3.00939
H         11.39157       -7.45522       -3.36436
H          9.12000       -7.50674       -5.46180
H         10.36196       -8.76111       -5.24199
H         10.82762       -7.14917       -5.82074
H         10.92255       -3.98265       -4.09305
H         11.90460       -5.41683       -4.48225
H         11.50465       -4.21468       -1.66495
H         12.97918       -4.08489       -2.65238
H         12.48048       -5.66456       -2.01583
H          4.83426       -2.30062       -6.63577
H          5.72070       -3.74560       -6.12670
H          7.01517       -1.18541       -7.19739
H          8.52434       -2.46804       -5.62142
H          9.08924       -2.30016       -7.27796
H          7.85026       -4.87506       -6.08991
H          9.55887       -4.55623       -6.34614
H          8.48192       -4.70674       -7.74237
H          6.38711       -3.85348       -8.56654
H          7.40210       -2.56587       -9.23778
H          5.68420       -2.26218       -8.91848
