64

C          0.57594       -2.91230        1.26280
C          2.02407       -2.42835        1.36731
C          2.92906       -2.98909        0.26413
C          4.38119       -2.50940        0.37724
C          5.25719       -3.03162       -0.77323
C          6.75436       -2.74061       -0.59870
C          7.04527       -1.25597       -0.33317
C          8.53200       -0.88895       -0.27424
C          9.26025       -1.36655       -1.53340
C          9.02425       -2.86381       -1.70435
N          7.54683       -3.15173       -1.85707
C          7.32106       -4.55387       -2.35345
C          7.67197       -4.69543       -3.83479
C          7.31105       -6.05070       -4.40761
Br         8.42546       -7.44135       -3.57147
Br         6.64187       -3.32582       -4.85695
C         10.75826       -1.03930       -1.53849
C         11.40778       -1.32680       -2.90346
O         10.75158       -1.87073       -3.80593
N         12.70960       -0.96424       -3.05861
C         13.36637       -1.18814       -4.35860
C         14.33524       -2.37797       -4.35735
C         13.67509       -3.73056       -4.06340
C         14.66834       -4.89466       -4.08456
C         13.48299       -0.27398       -2.02972
H         -0.04190       -2.49480        2.06855
H          0.51349       -4.00830        1.33176
H          0.12083       -2.61294        0.30709
H          2.43714       -2.70623        2.35143
H          2.04848       -1.32638        1.32861
H          2.52439       -2.70102       -0.72184
H          2.90293       -4.09239        0.29287
H          4.80175       -2.83988        1.34287
H          4.39268       -1.40872        0.39372
H          4.90773       -2.59368       -1.72518
H          5.09032       -4.11680       -0.84393
H          7.17369       -3.36151        0.21036
H          6.55769       -0.99143        0.61352
H          6.54186       -0.65679       -1.11276
H          8.99701       -1.33991        0.61908
H          8.63101        0.20008       -0.16096
H          8.82298       -0.87005       -2.41884
H          9.36769       -3.44164       -0.83258
H          9.53269       -3.21176       -2.60884
H          7.19848       -2.54637       -2.63028
H          6.26808       -4.81096       -2.20367
H          7.94080       -5.23383       -1.75308
H          8.71806       -4.44846       -4.05161
H          7.52522       -6.09865       -5.47824
H          6.26825       -6.32705       -4.21844
H         11.28106       -1.60564       -0.74823
H         10.88879        0.02255       -1.27747
H         13.89734       -0.26187       -4.62711
H         12.56714       -1.34637       -5.09276
H         15.15245       -2.20090       -3.63617
H         14.81669       -2.40608       -5.34874
H         12.87051       -3.90605       -4.79599
H         13.18176       -3.68886       -3.07761
H         15.15503       -4.98829       -5.06620
H         14.17151       -5.85060       -3.86959
H         15.46267       -4.75800       -3.33554
H         13.29335       -0.68498       -1.03106
H         13.27436        0.80822       -2.01594
H         14.54958       -0.41020       -2.23962
