42

C          8.55504       -4.44497       -0.48962
C          8.09420       -3.23348       -1.26610
O          6.61998       -3.28558       -1.33574
C          6.02521       -2.32703       -2.03162
O          6.60300       -1.41927       -2.61511
C          4.47876       -2.44992       -2.01751
C          3.97837       -2.23632       -3.41618
N          3.46003       -3.15959       -4.18132
N          3.19275       -2.52851       -5.37636
C          3.53989       -1.22890       -5.35853
N          3.45987       -0.28832       -6.29762
C          2.97704       -0.42982       -7.62647
C          3.16090       -1.58767       -8.38692
C          2.66968       -1.64982       -9.69393
C          2.02058       -0.54318      -10.24175
C          1.86170        0.63277       -9.50169
C          2.33690        0.70092       -8.18837
O          2.25491        1.78602       -7.36787
C          1.67784        2.99170       -7.89809
N          4.03383       -1.01600       -4.09997
N          4.54420        0.23045       -3.73007
C          3.91733       -3.73134       -1.39422
H          9.65127       -4.43094       -0.42441
H          8.25653       -5.37663       -0.98698
H          8.15414       -4.44408        0.53183
H          8.47326       -3.21819       -2.29657
H          8.36842       -2.28609       -0.78270
H          4.15040       -1.58013       -1.41787
H          2.72764       -3.03221       -6.12439
H          3.68287        0.65668       -5.97528
H          3.73898       -2.42314       -7.98879
H          2.81682       -2.55331      -10.28391
H          1.64111       -0.58291      -11.26263
H          1.36538        1.49227       -9.94872
H          1.73459        3.72534       -7.08812
H          0.62642        2.83202       -8.17806
H          2.24959        3.35186       -8.76573
H          3.93752        0.64590       -3.01804
H          5.47991        0.05443       -3.33206
H          4.21935       -4.61693       -1.96426
H          2.82172       -3.69326       -1.37310
H          4.28521       -3.83763       -0.36889
