94

C          0.62819        0.24342        0.34077
C          2.15486        0.28183        0.23361
C          2.71109       -0.61846       -0.87550
C          4.23840       -0.58107       -0.98881
C          4.79972       -1.47867       -2.09654
C          6.32671       -1.42554       -2.21017
C          6.89744       -2.31618       -3.31846
C          8.42377       -2.24646       -3.43179
C          9.00319       -3.13174       -4.53987
C         10.52885       -3.04781       -4.65189
C         11.11664       -3.93080       -5.75726
C         12.64208       -3.83670       -5.86409
C         13.23756       -4.72384       -6.96191
C         14.76257       -4.62147       -7.06351
C         15.36350       -5.52189       -8.14743
C         16.89121       -5.41335       -8.22509
C         17.50601       -6.29136       -9.32100
C         17.41103       -7.81043       -9.09112
C         18.39857       -8.41619      -10.09036
N         19.44270       -7.33390      -10.32322
C         19.01961       -6.03062       -9.57681
C         19.28583       -4.87746      -10.56996
O         18.90692       -5.37687      -11.84510
C         19.13415       -4.45242      -12.93966
C         18.67111       -5.10933      -14.22641
C         18.88391       -4.21139      -15.45257
C         18.36392       -4.84367      -16.74982
C         18.59417       -3.96562      -17.98162
C         19.85714       -5.85112       -8.35750
N         20.76221       -4.94047       -8.15336
N         21.23025       -5.10757       -6.86177
C         20.58396       -6.13826       -6.36619
O         19.68564       -6.67670       -7.26791
S         20.80512       -6.82375       -4.79806
C         19.33065       -7.91089       -4.64139
C         19.34344       -8.51206       -3.23744
H          0.26317        0.89834        1.14404
H          0.26800       -0.77442        0.55303
H          0.15354        0.57137       -0.59621
H          2.59983       -0.01574        1.19841
H          2.48609        1.31944        0.05740
H          2.26559       -0.32235       -1.84193
H          2.38224       -1.65821       -0.69960
H          4.68285       -0.87578       -0.02163
H          4.56474        0.45943       -1.16413
H          4.35165       -1.18886       -3.06341
H          4.48210       -2.52129       -1.91845
H          6.77426       -1.71586       -1.24314
H          6.64168       -0.38150       -2.38491
H          6.44652       -2.03034       -4.28518
H          6.59118       -3.36238       -3.14135
H          8.87447       -2.53178       -2.46477
H          8.72765       -1.19927       -3.60702
H          8.55015       -2.85031       -5.50681
H          8.70677       -4.18068       -4.36250
H         10.98130       -3.32702       -3.68394
H         10.82346       -1.99844       -4.82944
H         10.66492       -3.65389       -6.72601
H         10.82687       -4.98144       -5.57895
H         13.09299       -4.10730       -4.89303
H         12.93071       -2.78686       -6.04756
H         12.78778       -4.45632       -7.93399
H         12.95341       -5.77480       -6.77655
H         15.21174       -4.87803       -6.08787
H         15.04796       -3.57347       -7.26020
H         14.92694       -5.26332       -9.12771
H         15.07080       -6.56691       -7.94822
H         17.32673       -5.67779       -7.24820
H         17.16565       -4.36101       -8.40840
H         17.00450       -6.05886      -10.27682
H         16.39892       -8.19204       -9.26696
H         17.69057       -8.06521       -8.05939
H         17.93450       -8.62433      -11.06141
H         18.90235       -9.32192       -9.73650
H         19.45245       -7.02398      -11.32297
H         20.38627       -7.62330      -10.04662
H         20.34506       -4.57295      -10.54875
H         18.67565       -4.00744      -10.27305
H         20.20850       -4.19753      -12.97413
H         18.56854       -3.52651      -12.73664
H         17.60329       -5.36500      -14.13068
H         19.21647       -6.05835      -14.36363
H         19.95791       -3.98239      -15.56148
H         18.37977       -3.24267      -15.29294
H         17.28693       -5.05539      -16.64133
H         18.85235       -5.82185      -16.89692
H         18.08981       -2.99348      -17.88098
H         18.20784       -4.44620      -18.89006
H         19.66470       -3.76936      -18.13971
H         19.38612       -8.69110       -5.41156
H         18.43485       -7.29868       -4.80975
H         20.24588       -9.11258       -3.06183
H         18.47338       -9.17072       -3.11658
H         19.28863       -7.73447       -2.46448
