49

C          5.06519       -2.38376        0.52102
C          4.25633       -1.11651        0.34499
O          4.91614       -0.02914        1.03888
C          4.19823        1.18851        0.97257
C          4.83670        2.15411        1.97865
P          6.65723        2.11091        1.92876
C          7.26556        2.39729        0.23711
C          8.77656        2.18804       -0.00061
C          9.30748        0.76213        0.22358
C          8.56627       -0.29283       -0.59309
S          9.25530       -1.95947       -0.42174
O          8.42438       -2.87149       -1.17081
O         10.68816       -1.91526       -0.57843
Cl         8.86791       -2.31270        1.60906
C          7.36027        3.35431        3.05756
C          6.80965        3.38870        4.49914
C          6.93602        2.13534        5.38474
C          8.34712        1.72482        5.84599
S          9.16184        0.59618        4.69723
O          8.30666       -0.55706        4.49609
O          9.64797        1.34729        3.55677
O         10.46856        0.15469        5.52594
H          4.51388       -3.23105        0.09216
H          5.23924       -2.59493        1.58405
H          6.03399       -2.33390        0.00980
H          3.24259       -1.22969        0.76935
H          4.14746       -0.85154       -0.72267
H          3.13569        1.04359        1.24040
H          4.22138        1.61527       -0.04968
H          4.55577        1.88225        3.00747
H          4.51132        3.19025        1.80288
H          7.05243        0.82631        2.35549
H          6.97739        3.43227       -0.00664
H          6.66454        1.74180       -0.41040
H          9.35754        2.87765        0.62876
H          8.96691        2.49661       -1.04010
H          9.27129        0.50205        1.29093
H         10.37148        0.74970       -0.05048
H          8.63806       -0.12039       -1.67954
H          7.50717       -0.40932       -0.32372
H          7.17486        4.32639        2.57300
H          8.44554        3.17810        3.04226
H          5.74553        3.66843        4.46982
H          7.31473        4.22942        4.99972
H          6.43720        1.26088        4.93600
H          6.36563        2.34565        6.30076
H          8.29147        1.16523        6.78926
H          9.02683        2.57702        5.98724
H         10.32722       -0.74703        5.87715
