62

C          0.86805        0.21715        0.42838
C          2.39007        0.14342        0.28565
C          2.85361       -0.31126       -1.10300
C          4.37717       -0.38018       -1.24379
C          4.85834       -0.82652       -2.62836
C          6.38477       -0.87181       -2.74694
C          6.89871       -1.29835       -4.12568
C          8.42820       -1.31086       -4.21028
C          8.98237       -1.70770       -5.58206
C         10.51364       -1.69101       -5.62666
C         11.10400       -2.06046       -6.99106
C         12.63685       -2.04497       -6.99014
C         13.24639       -2.40867       -8.34849
C         14.77438       -2.45662       -8.27549
N         15.37915       -2.86413       -9.56499
C         15.86923       -1.94084      -10.46276
C         16.33601       -2.33352      -11.67565
C         16.25911       -3.72239      -12.03058
C         15.87782       -4.63281      -10.94586
N         15.42434       -4.15486       -9.79392
C         16.07423       -6.10624      -10.91723
O         16.69767       -6.68411      -11.83484
C         15.57533       -6.90171       -9.75498
N         16.51044       -4.09705      -13.27319
O         16.91120       -3.14178      -14.18081
O         16.39537       -5.31194      -13.80637
H          0.57249        0.54429        1.43473
H          0.40128       -0.76269        0.24744
H          0.43307        0.92632       -0.29185
H          2.79847       -0.54433        1.04566
H          2.82940        1.13089        0.50752
H          2.44615        0.37555       -1.86612
H          2.41867       -1.30145       -1.32708
H          4.78211       -1.06766       -0.48007
H          4.80798        0.61033       -1.01327
H          4.45171       -0.14347       -3.39494
H          4.44103       -1.82235       -2.85960
H          6.78805       -1.55851       -1.98170
H          6.79568        0.12353       -2.50161
H          6.49443       -0.61709       -4.89500
H          6.50674       -2.30056       -4.37283
H          8.82802       -1.99945       -3.44502
H          8.81210       -0.31064       -3.94253
H          8.58485       -1.02283       -6.35146
H          8.61633       -2.71358       -5.85262
H         10.90625       -2.38438       -4.86221
H         10.87351       -0.68842       -5.33644
H         10.72827       -1.36147       -7.75811
H         10.74842       -3.06197       -7.28941
H         13.00591       -2.75065       -6.22585
H         12.99299       -1.04733       -6.68107
H         12.93408       -1.68074       -9.11547
H         12.87962       -3.39575       -8.67476
H         15.11337       -3.19013       -7.53294
H         15.20078       -1.47812       -8.01585
H         15.86293       -0.90389      -10.13430
H         16.73339       -1.60407      -12.37626
H         16.04699       -6.57113       -8.81943
H         15.79796       -7.95781       -9.93319
H         14.49327       -6.75783       -9.62417
H         17.02720       -3.66120      -15.00496
H         16.64360       -6.00100      -12.98250
