56

N          5.10329        1.76420        0.21015
C          4.98432        0.76686       -0.86279
C          5.39659       -0.61831       -0.34024
C          4.42524       -1.11667        0.74197
C          4.96667       -2.17587        1.73734
C          5.40365       -3.47143        1.00952
C          4.24059       -4.29049        0.47462
N          3.34132       -4.68178        1.62739
C          2.75473       -3.49206        2.40384
C          3.90093       -2.55150        2.80898
C          1.56425       -2.90916        1.63501
C          0.44797       -3.92281        1.34902
C         -0.80527       -3.28376        0.73731
C         -1.90626       -4.29937        0.41239
C         -3.15439       -3.65685       -0.19700
C          6.22290       -1.64498        2.48181
C          6.02821       -0.28334        3.16875
C          7.12194        0.09353        4.16198
C          8.59344        0.14908        3.62859
Br         8.78263        1.27226        2.02083
F          9.43392        0.59880        4.57223
F          8.99189       -1.11084        3.30363
Br         6.67812        1.83682        4.95752
F          7.15204       -0.83885        5.18605
H          4.54970        2.59462        0.00407
H          6.07017        2.07773        0.30453
H          5.58051        1.00617       -1.76165
H          3.93099        0.74039       -1.18515
H          6.42312       -0.53794        0.05232
H          5.44663       -1.32222       -1.18638
H          3.52115       -1.48957        0.23702
H          4.09457       -0.24153        1.32213
H          5.99981       -4.10101        1.69416
H          6.07065       -3.23232        0.16960
H          4.56829       -5.22130       -0.00592
H          3.61887       -3.73445       -0.23838
H          3.88363       -5.26529        2.27822
H          2.55475       -5.25448        1.28892
H          2.35491       -3.95636        3.31959
H          4.42844       -3.02233        3.65601
H          3.43354       -1.64418        3.21757
H          1.88255       -2.42384        0.70164
H          1.16924       -2.09799        2.26591
H          0.17291       -4.44866        2.28052
H          0.79655       -4.70379        0.64211
H         -0.52542       -2.73721       -0.17971
H         -1.19602       -2.52525        1.43670
H         -2.18121       -4.84334        1.33161
H         -1.50621       -5.05837       -0.28187
H         -3.60231       -2.92313        0.48878
H         -3.91966       -4.41134       -0.42017
H         -2.91915       -3.13463       -1.13579
H          7.05396       -1.58237        1.76615
H          6.52264       -2.39722        3.22778
H          5.10672       -0.27634        3.76895
H          5.92150        0.52521        2.43336
