65

C         16.43409        8.85731        3.77342
C         14.99194        8.55273        3.36092
C         14.81997        8.39144        1.84626
C         13.37596        8.09433        1.42678
C         13.22015        7.90831       -0.08947
C         11.77545        7.62179       -0.46374
O         11.61214        7.49202       -1.92731
C         11.79727        6.28532       -2.44452
O         12.07288        5.25999       -1.84519
C         11.63336        6.30602       -3.97229
N         11.77672        4.92812       -4.41061
C         11.12082        4.32200       -5.41169
N         10.72577        5.01343       -6.51320
C         11.71903        5.86474       -7.16750
C         12.77981        4.96136       -7.85874
O         12.96595        3.81868       -7.43859
N         13.46362        5.52045       -8.87561
C         14.54463        4.82410       -9.58580
C         15.27988        5.77672      -10.52368
C         16.40268        5.08281      -11.30383
C         17.13382        6.02966      -12.25772
C          9.68670        4.44043       -7.40560
C          8.27949        4.37335       -6.78792
C          7.79148        5.75251       -6.32947
C          7.32762        3.74540       -7.81564
N         10.78537        3.02751       -5.26504
H         16.52532        8.96231        4.86272
H         16.79082        9.79356        3.31920
H         17.11842        8.05537        3.45915
H         14.32755        9.35748        3.71813
H         14.64974        7.63274        3.86415
H         15.47809        7.58007        1.48900
H         15.16659        9.30874        1.33905
H         12.72022        8.91361        1.76844
H         13.02537        7.18522        1.94471
H         13.85764        7.07517       -0.42546
H         13.55917        8.81361       -0.61785
H         11.11065        8.45596       -0.20902
H         11.40570        6.69846        0.00072
H         12.40884        6.96943       -4.39024
H         10.65268        6.71781       -4.24926
H         12.13773        4.34179       -3.64917
H         12.23632        6.50311       -6.43970
H         11.19989        6.52867       -7.87010
H         13.21666        6.45390       -9.19009
H         14.11879        3.97572      -10.14570
H         15.22785        4.39762       -8.83610
H         15.69984        6.61473       -9.94125
H         14.56069        6.21583      -11.23810
H         15.98210        4.23608      -11.87090
H         17.12172        4.64538      -10.59167
H         16.44931        6.44821      -13.01000
H         17.93641        5.50810      -12.79505
H         17.58968        6.87172      -11.71679
H         10.00278        3.45584       -7.79158
H          9.65459        5.10539       -8.28047
H          8.31283        3.70807       -5.90973
H          7.73167        6.45589       -7.17441
H          8.45188        6.19369       -5.57012
H          6.78830        5.67957       -5.88973
H          7.24237        4.37186       -8.71668
H          6.32049        3.63800       -7.39291
H          7.66411        2.74710       -8.13000
H         10.93000        2.57144       -4.37166
H         10.77353        2.43129       -6.08582
