47

C          4.71671        2.31263       -2.20064
C          4.60384        1.18303       -1.17541
C          4.72315       -0.20865       -1.80938
C          4.59755       -1.32915       -0.75868
C          4.87833       -2.72289       -1.33161
C          3.81257       -3.04762       -2.39786
O          3.98833       -4.28839       -3.05566
C          3.93728       -5.33959       -2.12432
C          5.01043       -5.20738       -1.05013
N          4.84409       -3.89530       -0.29546
C          5.55784       -3.86705        1.16828
C          7.08640       -3.56026        1.16016
C          7.54473       -2.20239        0.60651
C          7.68020       -3.72252        2.57851
C          4.72225       -2.86566        1.99727
O          3.34295       -3.16237        1.73985
C          5.30041       -5.26448        1.76470
Br         6.78810       -5.39124       -1.84000
H          4.62392        3.29391       -1.71781
H          3.92668        2.24175       -2.96197
H          5.68531        2.28721       -2.72006
H          3.63834        1.25748       -0.64773
H          5.38520        1.30079       -0.40595
H          5.69419       -0.29406       -2.32678
H          3.94818       -0.30453       -2.58484
H          3.59089       -1.30554       -0.31137
H          5.31523       -1.09813        0.03346
H          5.87670       -2.77416       -1.78356
H          3.86346       -2.28043       -3.17755
H          2.80578       -2.99856       -1.93116
H          4.08569       -6.28204       -2.66599
H          2.94587       -5.37756       -1.62117
H          4.91837       -6.02616       -0.33694
H          3.85550       -3.89645        0.03604
H          7.53959       -4.34352        0.53556
H          7.15993       -1.35715        1.19506
H          7.29143       -2.04574       -0.44716
H          8.63949       -2.15616        0.67412
H          7.26734       -2.99102        3.28783
H          8.76049       -3.53983        2.52519
H          7.54490       -4.72656        2.99503
H          4.95258       -1.82076        1.75763
H          4.96710       -3.03600        3.05630
H          2.77350       -2.59237        2.27882
H          5.98513       -6.02496        1.36868
H          4.25963       -5.58953        1.63533
H          5.46943       -5.21275        2.84537
