76

C          1.55635        1.78973        3.85032
C          3.01164        1.50649        3.47263
C          3.45198        0.07703        3.80286
C          4.90494       -0.22307        3.42300
C          5.34069       -1.65161        3.76123
C          6.78482       -1.96692        3.35956
C          7.20677       -3.40091        3.69363
C          8.63373       -3.74220        3.25410
C          9.02433       -5.19388        3.55504
C         10.43121       -5.54734        3.05730
C         10.86694       -6.97857        3.35934
O         12.21303       -7.13910        2.88960
C         12.77799       -8.36751        3.31569
C         12.03544       -9.55947        2.70958
N         10.56991       -9.43837        3.04969
C          9.95964       -8.06941        2.76212
C          9.65539       -7.96876        1.26348
C          8.53308       -8.93581        0.79433
N          7.31959       -8.64033        1.54507
N          8.35429       -8.72760       -0.63186
N          8.92244      -10.33022        1.20761
C         12.59362      -10.90292        3.16744
C         12.09539      -12.08424        2.33727
O         11.41075      -11.96523        1.33318
O         12.51613      -13.23780        2.86145
C         12.14638      -14.47652        2.15776
C         13.13799      -14.82017        1.05807
C         12.79622      -16.16434        0.39941
C         13.76932      -16.53207       -0.72263
H          1.26866        2.82085        3.60370
H          1.38993        1.64658        4.92838
H          0.86858        1.11598        3.31781
H          3.67405        2.21862        3.99305
H          3.15647        1.69047        2.39460
H          2.78538       -0.63660        3.28646
H          3.31116       -0.10564        4.88288
H          5.57185        0.49283        3.93459
H          5.04277       -0.04582        2.34178
H          4.66164       -2.36595        3.26249
H          5.21711       -1.82347        4.84490
H          7.46833       -1.25832        3.85853
H          6.90723       -1.79454        2.27583
H          6.50232       -4.10454        3.21443
H          7.10791       -3.56780        4.78043
H          9.34779       -3.06154        3.74765
H          8.73618       -3.55602        2.17074
H          8.27295       -5.86013        3.09553
H          8.96062       -5.37194        4.64239
H         11.17148       -4.88542        3.53128
H         10.51417       -5.36500        1.97405
H         10.86422       -7.12497        4.46214
H         12.77454       -8.43377        4.42406
H         13.82333       -8.37405        2.97744
H         12.09486       -9.50021        1.61431
H         10.43367       -9.66442        4.04257
H          9.92228      -10.09631        2.41029
H          8.99797       -8.07569        3.29686
H         10.55955       -8.12547        0.65668
H          9.31657       -6.94949        1.04080
H          6.97880       -7.71585        1.27440
H          6.57352       -9.29859        1.30796
H          9.20578       -8.88411       -1.17344
H          7.61042       -9.31143       -1.01618
H          8.09835      -10.92128        1.33403
H          9.51263      -10.77648        0.50191
H         12.39504      -11.09443        4.23421
H         13.69165      -10.87810        3.07866
H         11.12858      -14.35655        1.76279
H         12.14649      -15.23162        2.95376
H         14.15286      -14.86126        1.48468
H         13.13417      -14.02326        0.29821
H         11.76936      -16.12534       -0.00027
H         12.79788      -16.95697        1.16549
H         13.75722      -15.77847       -1.52350
H         13.50830      -17.49960       -1.17087
H         14.80015      -16.60518       -0.34767
