54

C          0.90306        0.72767       -0.45378
C          2.41573        0.49848       -0.39682
C          2.82904       -0.57244        0.62029
C          4.34050       -0.82308        0.66239
C          4.75714       -1.86501        1.70831
C          6.26886       -2.13508        1.70835
C          6.67623       -3.12317        2.80324
S          8.49817       -3.40169        2.65394
C          8.86308       -4.27037        4.10585
N          9.58975       -3.89491        5.11912
N          9.70654       -4.98016        5.98545
C          9.03437       -5.95467        5.45695
O          8.45927       -5.61575        4.25592
C          8.89193       -7.35629        5.97303
C          7.58939       -8.00932        5.49447
N          7.65664       -8.28064        4.00286
C          8.83872       -9.14949        3.60657
C         10.13636       -8.51766        4.09406
C         10.14020       -8.22910        5.61018
C         10.22185       -9.45337        6.54690
C         11.45452      -10.34639        6.37938
C         11.84509      -11.11560        7.62851
Br        12.48832       -9.86189        9.00458
Br        11.13046      -11.75533        4.98775
H          0.64175        1.50069       -1.18878
H          0.51019        1.05157        0.52149
H          0.36912       -0.19216       -0.73568
H          2.92372        1.44593       -0.15037
H          2.78301        0.21038       -1.39631
H          2.30785       -1.51770        0.38622
H          2.47845       -0.27475        1.62431
H          4.86397        0.12620        0.86929
H          4.68502       -1.14786       -0.33479
H          4.21479       -2.80869        1.52369
H          4.44553       -1.52152        2.70962
H          6.81602       -1.18996        1.85386
H          6.57313       -2.52527        0.72258
H          6.15282       -4.08280        2.69058
H          6.48281       -2.71468        3.80404
H          8.83136       -7.27633        7.06927
H          6.71608       -7.36868        5.66807
H          7.42111       -8.97534        5.98541
H          7.73497       -7.36056        3.53243
H          6.78063       -8.71677        3.69061
H          8.80968       -9.24752        2.51417
H          8.66779      -10.13983        4.05036
H         10.32337       -7.58387        3.54082
H         10.95130       -9.20066        3.82269
H         11.02109       -7.60494        5.82275
H          9.32354      -10.08887        6.49997
H         10.26552       -9.05647        7.57489
H         12.31790       -9.79207        5.99011
H         12.67583      -11.80000        7.43857
H         11.00279      -11.65940        8.07023
