38

C          3.04879       -1.95660        2.20305
C          2.83780       -0.55823        1.61872
C          3.80455        0.47352        2.21935
C          3.59169        1.84631        1.60386
O          4.43325        2.86094        2.27775
C          5.65216        3.04497        1.79600
O          6.18812        2.53090        0.83770
C          6.37685        4.04669        2.67143
N          6.05377        4.37012        3.93377
N          6.99015        5.17778        4.39836
N          7.88336        5.36657        3.45537
N          7.53759        4.66860        2.33737
C          8.34479        4.66707        1.14426
C          7.83908        5.06056       -0.02078
C          9.05783        6.25880        3.60047
C          9.92539        5.87759        4.80151
C         10.53004        4.45950        4.72671
C         11.22833        4.18767        3.47592
C         11.80195        3.97932        2.42941
H          2.34815       -2.67648        1.76072
H          2.89142       -1.96282        3.29114
H          4.06796       -2.32027        2.00857
H          1.79997       -0.23316        1.79790
H          2.96809       -0.59040        0.52466
H          4.84383        0.15102        2.04846
H          3.65253        0.53830        3.30816
H          2.57396        2.21909        1.76943
H          3.83027        1.86292        0.53248
H          9.36100        4.30363        1.31475
H          6.81445        5.41481       -0.13056
H          8.46117        5.01891       -0.91363
H          8.65590        7.27569        3.70552
H          9.61743        6.18994        2.65945
H          9.34800        5.98387        5.72960
H         10.73046        6.62610        4.83133
H          9.74608        3.69975        4.88636
H         11.22938        4.33791        5.56860
H         12.36487        3.77603        1.54071
