91

C          5.03858       -1.14263        0.68364
C          5.46262       -1.30035       -0.77732
C          4.85836       -0.20726       -1.67296
C          4.99483       -0.56708       -3.15374
N          4.77367        0.46550       -4.19489
C          3.76467        1.38144       -4.29510
O          3.53725        2.02592       -5.32478
C          2.90107        1.69850       -3.05062
C          2.21261        3.02220       -3.22936
C          0.85113        3.15422       -3.56359
C          0.31149        4.43853       -3.71920
C          1.10008        5.56839       -3.51925
C          2.43237        5.39839       -3.20432
N          2.96900        4.15857       -3.07893
C          4.43945        4.08287       -2.83783
C          4.85416        3.88057       -1.37482
C          6.36631        3.61543       -1.34617
S          6.86041        2.82966        0.21223
C          8.58277        3.37091        0.34294
S          9.26624        4.53630       -0.60994
N          9.22397        2.71181        1.35368
C          8.68724        1.53395        1.99726
C          8.68624        0.30790        1.31794
C          8.25662       -0.84326        1.97642
C          7.82409       -0.77346        3.30458
C          7.82434        0.45180        3.97628
C          8.26086        1.60872        3.32712
C         10.53106        3.12867        1.81618
C         10.68383        4.35489        2.47050
C         11.93905        4.71845        2.95804
C         13.03290        3.86112        2.80126
C         12.86945        2.63464        2.15330
C         11.61718        2.26358        1.65986
C         -0.04906        1.95826       -3.73533
C         -0.93356        1.70669       -2.48819
O         -2.04712        2.63881       -2.41119
C         -3.04404        2.51481       -3.34185
O         -3.06869        1.65703       -4.19733
C         -4.08761        3.59630       -3.17119
S         -3.52024        5.19597       -3.87383
C         -1.36902        0.24639       -2.33973
O         -0.24814       -0.39074       -1.67356
C         -0.36438       -1.74102       -1.50083
O         -1.31955       -2.38892       -1.86245
C          0.86279       -2.30794       -0.82121
S          2.17282       -2.67162       -2.04573
C          5.53032        0.20378       -5.42697
H          5.46353       -1.93451        1.31281
H          3.94322       -1.19676        0.78195
H          5.36953       -0.18024        1.09891
H          5.14704       -2.28997       -1.14479
H          6.56129       -1.27239       -0.85764
H          5.36191        0.74851       -1.45625
H          3.80016       -0.09942       -1.39209
H          4.34807       -1.43294       -3.37701
H          6.02844       -0.90393       -3.31793
H          3.50477        1.71375       -2.14025
H          2.16175        0.90132       -2.90489
H         -0.73816        4.55225       -4.00274
H          0.69888        6.57442       -3.62947
H          3.12041        6.22931       -3.06343
H          4.86041        5.01651       -3.23040
H          4.83023        3.27867       -3.46950
H          4.30166        3.03776       -0.93331
H          4.60258        4.76579       -0.77248
H          6.96721        4.53523       -1.44328
H          6.65404        2.94628       -2.17186
H          9.03318        0.26839        0.28495
H          8.26701       -1.80003        1.45327
H          7.49438       -1.67676        3.81865
H          7.49329        0.50726        5.01365
H          8.28649        2.56721        3.84583
H          9.82690        5.01849        2.58474
H         12.06247        5.67483        3.46685
H         14.01182        4.14857        3.18552
H         13.71844        1.96216        2.02752
H         11.48341        1.30714        1.15455
H          0.52741        1.04922       -3.93832
H         -0.69866        2.10316       -4.60830
H         -0.36273        1.95532       -1.58185
H         -4.36168        3.73834       -2.12025
H         -4.97338        3.30711       -3.74636
H         -2.95095        5.66228       -2.73773
H         -1.57578       -0.25085       -3.29417
H         -2.26279        0.17026       -1.70417
H          0.58999       -3.21819       -0.27770
H          1.30864       -1.58060       -0.13169
H          1.47024       -3.59207       -2.74860
H          6.59709        0.12103       -5.18208
H          5.36695        1.02375       -6.13050
H          5.20136       -0.73637       -5.89706
