75

C          0.68544       -0.04544       -0.30124
C          2.21474       -0.00965       -0.24421
C          2.76455        0.42098        1.12018
C          4.29486        0.45584        1.18106
C          4.85063        0.87601        2.54528
C          6.38138        0.90055        2.60035
C          6.94387        1.30750        3.96563
C          8.47468        1.33904        4.01129
C          9.04265        1.73744        5.37679
C         10.57238        1.81101        5.40385
C         11.14751        2.19097        6.77147
C         12.67246        2.33671        6.77191
C         13.24721        2.70661        8.14394
C         14.77970        2.81861        8.19378
C         15.41149        3.82835        7.21937
C         14.91097        5.26673        7.41580
C         15.44697        6.26263        6.36640
C         17.00078        6.42414        6.36862
C         17.46151        7.13997        7.65782
C         16.77087        8.48191        7.87354
N         15.26090        8.30934        7.77908
C         14.83008        7.65722        6.47464
Br        12.88166        7.73116        6.42535
C         17.52097        7.09289        5.07946
C         19.00981        6.82524        4.82478
C         19.57451        7.70787        3.72492
F         18.90141        7.55435        2.55480
F         19.48747        9.02986        4.06342
F         20.87640        7.43520        3.49224
H          0.32542       -0.35702       -1.29140
H          0.25376        0.94368       -0.08683
H          0.27498       -0.75017        0.43751
H          2.59676        0.67498       -1.02059
H          2.61657       -1.00540       -0.49768
H          2.38365       -0.26382        1.89864
H          2.36471        1.41828        1.37635
H          4.67464        1.14426        0.40526
H          4.69215       -0.54051        0.91830
H          4.46902        0.18971        3.32172
H          4.45926        1.87471        2.80837
H          6.76261        1.59239        1.82824
H          6.77154       -0.09616        2.32874
H          6.56979        0.61136        4.73684
H          6.55020        2.30176        4.24197
H          8.84668        2.04030        3.24303
H          8.86923        0.34741        3.72816
H          8.69698        1.01908        6.14050
H          8.62601        2.71618        5.67455
H         10.91312        2.54197        4.64837
H         10.99164        0.83900        5.09042
H         10.85190        1.43402        7.51807
H         10.69200        3.13925        7.10940
H         12.95075        3.09776        6.02056
H         13.13375        1.39510        6.42603
H         12.94007        1.94557        8.87876
H         12.78276        3.64555        8.49428
H         15.21998        1.83151        7.98170
H         15.09002        3.06962        9.22218
H         15.21021        3.52414        6.17899
H         16.50461        3.78319        7.34447
H         15.16049        5.58343        8.44696
H         13.81316        5.27417        7.35814
H         15.15348        5.88847        5.37237
H         17.41028        5.40388        6.39866
H         18.54350        7.33097        7.63595
H         17.29283        6.49410        8.53257
H         17.03701        9.22473        7.10984
H         16.98010        8.91200        8.86127
H         14.78001        9.21436        7.87460
H         14.92214        7.71396        8.55128
H         15.16192        8.32781        5.67466
H         17.35923        8.18279        5.09882
H         16.94205        6.71832        4.22211
H         19.17753        5.77926        4.53163
H         19.62335        7.01766        5.71697
