72

C          2.61318       -0.38548       -3.78807
C          3.85611       -0.02393       -2.97154
C          3.98570        1.47703       -2.69084
C          5.27264        1.84907       -1.94989
C          5.44496        3.35550       -1.73136
C          6.81883        3.72267       -1.16558
C          7.08663        5.23388       -1.11963
C          8.56841        5.57674       -0.81828
C          9.30618        6.58378       -1.72042
C          8.99162        8.08098       -1.47963
C          9.91541        8.95494       -2.34790
C          9.76765        8.62527       -3.83546
C         10.03402        7.14974       -4.08884
N          9.15530        6.26769       -3.22439
C          9.28719        4.82825       -3.61662
C          7.98172        4.45665       -4.36413
O          7.18370        5.37720       -4.55849
C          7.72817        3.07088       -4.76379
C          6.48202        2.76434       -5.34999
C          6.17600        1.45206       -5.68803
C          7.10922        0.43474       -5.45340
C          8.35325        0.72993       -4.88468
C          8.66336        2.04128       -4.53641
C          7.51154        8.49553       -1.61366
C          6.72149        8.32398       -0.31907
O          7.22059        8.13290        0.77392
O          5.40368        8.43791       -0.55631
C          4.52107        8.31818        0.60542
C          3.12246        8.71889        0.17358
C          2.10549        8.51928        1.30139
H          2.54732       -1.46758       -3.96507
H          2.61844        0.11276       -4.76975
H          1.69176       -0.07979       -3.27183
H          4.76103       -0.37002       -3.50087
H          3.84344       -0.57214       -2.01486
H          3.10996        1.81883       -2.11252
H          3.94521        2.03097       -3.64600
H          6.13764        1.47046       -2.52274
H          5.30577        1.32682       -0.97842
H          4.65052        3.73457       -1.06650
H          5.30316        3.87815       -2.69418
H          7.58957        3.22686       -1.78194
H          6.94084        3.29647       -0.15561
H          6.44218        5.69066       -0.35724
H          6.75300        5.67019       -2.07337
H          9.15170        4.64284       -0.79199
H          8.65865        5.99081        0.19580
H         10.38578        6.45860       -1.53446
H          9.25321        8.24630       -0.42248
H         10.96208        8.79697       -2.04042
H          9.69687       10.01639       -2.16763
H         10.47801        9.20450       -4.44219
H          8.76330        8.89070       -4.20291
H         11.07433        6.88050       -3.85142
H          9.82567        6.86813       -5.12977
H          8.16255        6.45869       -3.52953
H          9.43287        4.20569       -2.72922
H         10.15977        4.70348       -4.27041
H          5.76580        3.56886       -5.51471
H          5.20567        1.21310       -6.12271
H          6.86438       -0.59564       -5.71283
H          9.07672       -0.06616       -4.71000
H          9.63367        2.25199       -4.08466
H          6.96199        7.99714       -2.42549
H          7.46133        9.56882       -1.85912
H          4.91216        8.95531        1.41084
H          4.56011        7.27343        0.95231
H          2.83397        8.12346       -0.70635
H          3.13390        9.77180       -0.14713
H          2.03760        7.46340        1.60075
H          1.10530        8.83791        0.98300
H          2.36991        9.10327        2.19447
