111

C          0.87909        0.27522        0.70018
C          2.37833       -0.01991        0.61247
C          2.70199       -1.30503       -0.15867
C          4.20273       -1.59995       -0.24371
C          4.53862       -2.88532       -1.00891
C          6.04827       -3.14576       -1.08357
C          6.40056       -4.42243       -1.82685
O          7.83886       -4.52295       -1.87562
C          8.30720       -5.74490       -2.40223
C          9.78491       -5.81757       -2.17710
C         10.78083       -6.14602       -3.05972
N         11.98157       -6.07305       -2.38155
C         11.73728       -5.69616       -1.11863
N         10.41428       -5.54020       -0.96061
C          9.79000       -5.10683        0.30431
C          8.96190       -6.21691        0.95775
O          8.50519       -5.67993        2.17547
C          7.47089       -6.46838        2.77361
C          7.06858       -5.80446        4.08357
O          5.88954       -6.48000        4.49366
C          5.30185       -6.10824        5.68513
C          4.09586       -6.75403        5.98822
C          3.42070       -6.44624        7.16128
C          3.90743       -5.49022        8.07425
C          5.12269       -4.87674        7.75469
C          5.82125       -5.16631        6.57438
C          3.12043       -5.17416        9.35580
C          1.64924       -4.74824        9.03938
C          1.25374       -3.43488        8.29696
C          1.46490       -2.17592        9.16389
C          1.97961       -3.24880        6.95057
C         -0.26088       -3.55648        8.01623
C          3.02184       -6.48351       10.18346
C          3.84433       -4.14332       10.23991
C         13.30610       -6.33095       -2.97122
O         13.34142       -5.61774       -4.16350
C         14.51186       -5.89848       -4.97386
C         14.28300       -5.30704       -6.35300
C         15.50031       -5.47294       -7.27245
C         15.21641       -5.03859       -8.71499
C         16.42926       -5.16705       -9.64247
C         16.11032       -4.85336      -11.10773
C         17.32550       -4.95222      -12.03647
C         16.98436       -4.70629      -13.50802
H          0.68381        1.20122        1.25762
H          0.34045       -0.53799        1.20929
H          0.43438        0.39000       -0.29952
H          2.79987       -0.09250        1.62942
H          2.89363        0.82930        0.13227
H          2.28408       -1.23365       -1.17830
H          2.18717       -2.15678        0.31990
H          4.61981       -1.66609        0.77643
H          4.71480       -0.74811       -0.72462
H          4.12361       -2.82348       -2.02949
H          4.03579       -3.74074       -0.52537
H          6.46699       -3.20238       -0.06485
H          6.54771       -2.30080       -1.58444
H          5.99765       -4.41351       -2.85662
H          5.99119       -5.31286       -1.31110
H          8.11754       -5.83748       -3.48888
H          7.80521       -6.60676       -1.91546
H         10.73715       -6.39082       -4.11374
H         12.48558       -5.52619       -0.35255
H          9.15582       -4.24041        0.08756
H         10.59884       -4.80169        0.98037
H          9.58064       -7.12439        1.11311
H          8.11025       -6.49898        0.30946
H          7.82319       -7.49986        2.95530
H          6.59345       -6.51645        2.10239
H          6.87753       -4.72846        3.91760
H          7.87360       -5.90279        4.83258
H          3.70258       -7.49286        5.28931
H          2.48034       -6.96187        7.36110
H          5.55313       -4.13524        8.42649
H          6.75858       -4.64886        6.37275
H          1.11550       -4.73721       10.00557
H          1.19665       -5.57929        8.47370
H          2.52431       -1.92326        9.29143
H          1.02582       -2.30040       10.16499
H          0.97902       -1.30821        8.69380
H          3.05955       -3.10039        7.07843
H          1.57947       -2.36454        6.43149
H          1.84182       -4.11704        6.29043
H         -0.83209       -3.68532        8.94788
H         -0.47763       -4.41812        7.36756
H         -0.63829       -2.65289        7.51523
H          2.45442       -7.26111        9.65390
H          2.51649       -6.29580       11.14201
H          4.02353       -6.88316       10.39454
H          4.06907       -3.20657        9.71627
H          4.79200       -4.55128       10.62117
H          3.22125       -3.89344       11.10942
H         13.41256       -7.42100       -3.13436
H         14.06180       -6.00261       -2.23182
H         14.65739       -6.99336       -5.03098
H         15.40024       -5.45921       -4.48521
H         14.03226       -4.23956       -6.24680
H         13.40416       -5.79593       -6.80401
H         15.82409       -6.52855       -7.27304
H         16.34885       -4.89423       -6.86986
H         14.85789       -3.99453       -8.72135
H         14.38574       -5.64560       -9.11563
H         16.83477       -6.19171       -9.57209
H         17.23359       -4.49883       -9.28836
H         15.67610       -3.84063      -11.18212
H         15.32467       -5.54399      -11.46269
H         17.78391       -5.94995      -11.92754
H         18.09288       -4.23085      -11.70818
H         16.25395       -5.44275      -13.87587
H         17.87602       -4.77766      -14.14528
H         16.54841       -3.70714      -13.65737
