71

C          4.96211      -10.04410       -2.08199
C          5.61511       -8.98768       -1.18787
C          4.62927       -7.90762       -0.72797
C          5.30190       -6.84484        0.14882
N          4.37311       -5.75786        0.52274
C          3.62318       -5.83618        1.63583
S          3.81107       -7.07709        2.77469
S          2.47965       -4.46782        1.80894
C          1.51871       -4.86346        3.29960
C         -0.00155       -4.87578        3.06819
C         -0.51794       -5.75697        1.92141
N          0.02900       -7.12820        1.92446
C          0.05335       -7.86522        3.05165
N          1.11618       -8.59372        3.49533
C          0.73929       -9.17292        4.67992
N         -0.49455       -8.87311        4.99369
N         -0.92609       -8.06172        3.96977
C         -2.33225       -7.66477        3.91387
C         -3.08419       -8.43333        2.81716
C         -4.47352       -7.85805        2.60309
F         -5.19661       -7.83510        3.75216
F         -4.40698       -6.57317        2.14641
F         -5.16810       -8.57720        1.69341
C          0.73599       -7.64541        0.73048
C          0.17361       -8.96588        0.22775
O         -1.18418       -8.79060       -0.12473
C         -1.75332       -9.97075       -0.72333
C         -3.16522       -9.66317       -1.17857
C          4.30637       -4.61770       -0.41758
C          5.16303       -3.40678       -0.01242
C          6.66741       -3.67328        0.11405
C          7.45918       -2.40750        0.45202
H          5.68729      -10.80780       -2.39143
H          4.54463       -9.59422       -2.99487
H          4.14220      -10.55980       -1.55973
H          6.44975       -8.51201       -1.72906
H          6.06210       -9.47165       -0.30411
H          3.80923       -8.37422       -0.15740
H          4.17014       -7.42522       -1.60769
H          6.13806       -6.37955       -0.38871
H          5.69348       -7.29105        1.07090
H          1.77124       -4.10830        4.05472
H          1.92114       -5.82680        3.65421
H         -0.36862       -3.85703        2.87000
H         -0.46449       -5.16760        4.02584
H         -0.20814       -5.32843        0.96134
H         -1.61992       -5.76178        1.91287
H          2.08378       -8.35977        3.16678
H          1.38622       -9.80572        5.27846
H         -2.39364       -6.58079        3.75092
H         -2.73583       -7.87923        4.90916
H         -3.19060       -9.49079        3.09379
H         -2.55278       -8.37923        1.85441
H          1.81524       -7.75106        0.92476
H          0.61777       -6.88035       -0.04535
H          0.28423       -9.76551        0.98981
H          0.77839       -9.27778       -0.64677
H         -1.73952      -10.79696        0.01387
H         -1.12263      -10.27923       -1.57779
H         -3.81178       -9.38704       -0.33615
H         -3.60045      -10.54909       -1.65973
H         -3.17167       -8.84137       -1.90652
H          3.25359       -4.31847       -0.53122
H          4.63166       -5.00513       -1.39320
H          4.78199       -2.98872        0.93238
H          4.98637       -2.63301       -0.77811
H          7.04804       -4.10396       -0.82806
H          6.84628       -4.42834        0.89695
H          7.33990       -1.64000       -0.32644
H          8.53133       -2.62391        0.54356
H          7.12602       -1.97008        1.40426
