73

C          0.65155        7.84720       -7.00636
C          2.18080        7.78884       -6.97867
C          2.75435        7.58802       -5.57172
C          4.28487        7.54719       -5.53146
C          4.85404        7.32817       -4.12642
C          6.38460        7.33449       -4.07838
C          6.95208        7.12526       -2.67110
C          8.48201        7.18395       -2.62257
C          9.04792        7.06250       -1.20481
C         10.57860        7.15875       -1.16562
C         11.11481        7.12467        0.27671
C         12.63511        7.10166        0.42385
I         13.17244        6.82412        2.52940
N         13.25028        5.87817       -0.30188
C         14.46537        6.44004       -1.08908
O         14.71871        7.66049       -0.50061
C         13.42666        8.25341       -0.24509
C         13.56092        9.56546        0.49972
C         14.15046       10.68576       -0.36666
C         14.22660       12.02543        0.37281
C         14.78364       13.15514       -0.49945
C         14.80040       14.51922        0.19682
C         15.34762       15.64369       -0.68840
C         15.34740       17.01710       -0.01069
C         15.89180       18.13947       -0.90149
C         15.89033       19.51013       -0.22100
H          0.27205        7.98757       -8.02766
H          0.27229        8.67879       -6.39382
H          0.20910        6.91986       -6.61272
H          2.59338        8.71743       -7.40872
H          2.53172        6.97246       -7.63262
H          2.35196        6.65206       -5.14503
H          2.39420        8.39763       -4.91238
H          4.68475        8.49090       -5.94312
H          4.64845        6.74852       -6.20181
H          4.47876        6.37045       -3.72506
H          4.46696        8.11043       -3.45001
H          6.75584        8.29469       -4.47827
H          6.77796        6.55424       -4.75339
H          6.60827        6.15437       -2.27406
H          6.53838        7.89282       -1.99405
H          8.82185        8.13616       -3.06637
H          8.90166        6.38489       -3.25903
H          8.72766        6.10945       -0.75051
H          8.62467        7.85994       -0.57088
H         10.89512        8.08315       -1.67340
H         10.99078        6.32649       -1.77252
H         10.69124        6.26214        0.81395
H         10.75881        8.01225        0.82165
H         12.55398        5.46493       -0.93927
H         13.53025        5.17478        0.39491
H         14.13158        6.51118       -2.13930
H         15.32582        5.77017       -0.98246
H         12.93765        8.44038       -1.22370
H         14.17593        9.40233        1.39799
H         12.55683        9.85660        0.85230
H         13.53504       10.80640       -1.27533
H         15.15550       10.39244       -0.70940
H         14.85080       11.91299        1.27597
H         13.21951       12.30219        0.73149
H         14.18378       13.22803       -1.42382
H         15.80653       12.89537       -0.82323
H         15.40162       14.45348        1.12043
H         13.77617       14.77514        0.52067
H         14.75294       15.69624       -1.61763
H         16.37565       15.39191       -1.00323
H         15.94316       16.96729        0.91794
H         14.31934       17.26890        0.30494
H         15.29501       18.18698       -1.82830
H         16.91786       17.88513       -1.21724
H         14.87376       19.80920        0.07495
H         16.28510       20.29024       -0.88594
H         16.50988       19.50519        0.68829
