47

F          1.75710       -1.08634       -2.16092
C          1.99173       -0.73880       -0.81200
C          3.15285       -1.56025       -0.27360
N          4.45136       -1.24147       -0.86303
C          5.02083       -1.84698       -1.93946
N          4.24298       -2.56589       -2.76802
C          4.57946       -3.71657       -3.67108
C          3.18712       -4.36464       -4.00953
C          2.26870       -3.46511       -4.85866
C          3.29395       -5.75365       -4.65726
C          5.25937       -3.21690       -4.96163
O          6.59611       -2.80083       -4.65048
C          5.47150       -4.71273       -2.91264
N          6.33454       -1.70437       -2.13801
C          7.27296       -1.22210       -1.14316
C          8.69588       -1.53119       -1.61893
O          8.94571       -1.93967       -2.73445
O          9.56448       -1.27285       -0.63859
C         10.99307       -1.47081       -0.94152
C         11.60969       -0.20164       -1.49629
H          1.07197       -0.95415       -0.24905
H          2.19976        0.34083       -0.78775
H          2.95231       -2.63184       -0.41836
H          3.22477       -1.38977        0.81095
H          4.98228       -0.49423       -0.43020
H          3.25569       -2.31396       -2.73819
H          2.70745       -4.50654       -3.02378
H          2.60464       -3.41589       -5.90403
H          2.18146       -2.43290       -4.49028
H          1.25448       -3.88436       -4.86743
H          3.82019       -5.72353       -5.62226
H          2.28472       -6.13673       -4.85643
H          3.79786       -6.48530       -4.01533
H          4.68238       -2.38214       -5.38856
H          5.28239       -4.04156       -5.69208
H          7.04305       -2.48771       -5.45181
H          4.92049       -5.14208       -2.06510
H          6.38913       -4.24822       -2.53781
H          5.78093       -5.52851       -3.57505
H          6.72051       -2.00731       -3.05519
H          7.10609       -1.69755       -0.16430
H          7.21169       -0.12783       -0.99909
H         11.07865       -2.31321       -1.63915
H         11.42145       -1.74887        0.02837
H         11.17852        0.06145       -2.47070
H         12.68812       -0.35839       -1.63659
H         11.47757        0.63973       -0.80375
