35

C          5.82472       -0.36414       -4.41944
C          5.62705       -0.18436       -2.91225
C          6.15944        1.16399       -2.40623
C          5.94856        1.34288       -0.91434
O          6.46923        2.64671       -0.53531
C          6.27693        2.93939        0.80745
N          6.72322        4.35040        0.99349
C          6.05812        5.31958        0.31770
C          6.45967        6.64514        0.44298
I          5.41868        8.13200       -0.59034
C          7.55299        6.95042        1.26854
C          8.23269        5.93562        1.95308
C          7.78000        4.62575        1.78823
C          9.43437        6.21163        2.83564
C          9.42181        5.42537        4.12286
C         10.32859        4.49998        4.44835
H          5.44616       -1.33889       -4.75318
H          6.88813       -0.30882       -4.69365
H          5.29284        0.41177       -4.98888
H          6.13149       -1.00363       -2.37394
H          4.55546       -0.27209       -2.66820
H          5.65725        1.98829       -2.93792
H          7.23496        1.25121       -2.62795
H          6.47946        0.56372       -0.33781
H          4.87575        1.29610       -0.64975
H          6.88484        2.31698        1.48905
H          5.21427        2.87839        1.11324
H          5.23255        4.99072       -0.30956
H          7.87728        7.98656        1.37865
H          8.24950        3.78123        2.29079
H          9.46991        7.29194        3.04609
H         10.34714        5.97564        2.26239
H          8.60961        5.66059        4.81855
H         11.16226        4.25198        3.78686
H         10.28485        3.97395        5.40202
