67

N          4.35557        0.59724        1.52901
C          4.12861        1.04331        0.16532
C          2.67193        1.24676       -0.30515
C          1.93640        2.35005        0.47822
C          0.53265        2.60377       -0.06428
C         -0.46900        1.44552        0.13367
N         -1.73577        2.16049        0.35913
C         -1.49257        3.43931        0.74708
N         -2.42128        4.30487        1.14693
C         -3.82821        3.83528        1.33891
C         -4.84279        4.94967        1.31094
C         -5.46348        5.32518        2.51024
C         -6.41386        6.34614        2.53758
C         -6.74772        6.99942        1.35049
C         -6.13775        6.62463        0.15103
C         -5.18287        5.60014        0.10195
C         -4.54526        5.22367       -1.21198
C         -2.04338        5.65509        1.60365
C         -1.69260        5.72776        3.09126
C         -1.35340        7.15934        3.51191
N         -1.10295        7.22048        4.94492
C         -0.87984        8.58188        5.46195
C          0.23991        9.36750        4.80475
C         -0.01954       10.49648        4.01977
C          1.00644       11.22395        3.41037
C          2.33079       10.81828        3.58393
C          2.62068        9.69120        4.35604
C          1.58331        8.97247        4.95690
O          1.82380        7.84800        5.71980
N         -0.16774        3.69809        0.64825
O          2.62007        1.51720       -1.71264
H          4.02224        1.25384        2.23222
H          3.94742       -0.31748        1.71625
H          4.58784        0.31177       -0.51763
H          4.67511        1.99396        0.02038
H          2.13434        0.28988       -0.17614
H          2.52208        3.28309        0.40649
H          1.87450        2.08214        1.54546
H          0.60269        2.85044       -1.13603
H         -0.20749        0.83276        1.01287
H         -0.53385        0.79915       -0.74830
H         -2.55697        1.66491        0.68594
H         -3.89687        3.29964        2.29900
H         -4.04132        3.12296        0.52755
H         -5.20022        4.80595        3.43443
H         -6.89152        6.62447        3.47682
H         -7.48964        7.79848        1.35379
H         -6.41254        7.13380       -0.77454
H         -5.01319        5.76575       -2.04167
H         -4.64444        4.14782       -1.42550
H         -3.46909        5.45684       -1.23287
H         -2.89903        6.30630        1.38375
H         -1.21901        6.02308        0.97439
H         -0.84345        5.05841        3.31053
H         -2.54273        5.37317        3.69271
H         -2.21350        7.81645        3.29301
H         -0.51140        7.54082        2.89194
H         -0.28878        6.64950        5.18087
H         -0.68972        8.48358        6.54070
H         -1.81926        9.14582        5.35133
H         -1.05691       10.81802        3.90092
H          0.77466       12.10627        2.81417
H          3.14493       11.37909        3.12390
H          3.65668        9.37272        4.50142
H          2.78234        7.75230        5.83954
H          0.17655        4.65067        0.60291
H          3.40772        2.02945       -1.96025
