65

C          0.72516        0.28335       -0.86181
C          2.24427        0.21685       -0.69596
C          2.82904        1.44713        0.00452
C          4.34833        1.37999        0.18497
C          4.93510        2.61951        0.86692
C          6.45168        2.53490        1.06744
C          7.03548        3.79588        1.72464
C          8.53735        3.65544        1.93853
N          9.20441        4.95993        2.37700
C          8.70450        5.49505        3.69321
C          9.03287        4.58850        4.88421
O          9.65092        3.54594        4.80396
O          8.53172        5.14964        5.98279
C          8.71346        4.42287        7.25819
C          7.55811        3.47359        7.49844
C         10.73231        4.90430        2.28742
C         11.22132        5.02663        0.85015
C         12.75483        5.09812        0.77887
C         13.26676        5.20407       -0.66202
C         14.79364        5.27536       -0.76208
C         15.29548        5.36685       -2.20656
C         16.82123        5.43700       -2.32460
C         17.30448        5.51160       -3.77475
H          0.33789       -0.60957       -1.37014
H          0.42714        1.15968       -1.45626
H          0.22025        0.35717        0.11259
H          2.71971        0.10449       -1.68481
H          2.51459       -0.68726       -0.12509
H          2.34892        1.56700        0.99167
H          2.56805        2.35227       -0.57148
H          4.82772        1.24549       -0.80033
H          4.60633        0.48260        0.77379
H          4.44551        2.76572        1.84537
H          4.69461        3.51461        0.26729
H          6.94433        2.37076        0.09423
H          6.69175        1.65538        1.68817
H          6.51719        3.96937        2.68097
H          6.82353        4.66784        1.07929
H          9.03424        3.38065        0.99964
H          8.79281        2.91253        2.70215
H          8.91635        5.66153        1.67928
H          7.61896        5.63505        3.62337
H          9.15943        6.48273        3.84736
H          8.75221        5.22715        8.00122
H          9.67926        3.90483        7.21759
H          6.59805        4.00532        7.48834
H          7.67760        3.01104        8.48774
H          7.53712        2.66896        6.75251
H         11.03804        3.97055        2.77199
H         11.10367        5.74272        2.89333
H         10.79764        5.93799        0.38972
H         10.87730        4.17239        0.24636
H         13.18503        4.20303        1.25816
H         13.10940        5.96431        1.36263
H         12.82739        6.09632       -1.14110
H         12.90438        4.33648       -1.24028
H         15.23361        4.38658       -0.27741
H         15.15817        6.14665       -0.19088
H         14.85232        6.25414       -2.69195
H         14.92775        4.49479       -2.77543
H         17.26385        4.55488       -1.83200
H         17.18895        6.31386       -1.76565
H         16.97931        4.63034       -4.34754
H         18.40010        5.55832       -3.83137
H         16.90625        6.40225       -4.28297
