112

C          0.85221        1.24882       -1.36881
C          2.34300        0.95292       -1.18811
C          3.11002        2.09723       -0.51640
C          4.60294        1.81176       -0.32638
C          5.36402        2.95993        0.34384
C          6.86009        2.68470        0.52500
C          7.61501        3.83777        1.19360
C          9.12374        3.59606        1.30868
C          9.87391        4.76499        1.95916
C         11.38224        4.59529        1.88931
O         12.01463        5.74270        2.47838
C         13.38588        5.84294        2.15863
C         13.93355        7.20591        2.63532
C         15.18515        7.58272        1.84017
N         14.80271        8.09941        0.51515
C         13.54540        8.38056        0.13274
N         13.26340        8.64632       -1.15806
N         12.54426        8.37726        1.02858
C         12.88840        8.32808        2.47007
C         13.31515        9.72987        2.93829
C         13.70420        9.86086        4.40990
O         14.19182       11.18078        4.55987
C         14.64577       11.49083        5.87711
C         15.34490       12.84154        5.79179
O         15.76172       13.16544        7.10997
C         16.53603       14.29251        7.28155
C         16.96863       14.53951        8.59228
C         17.76785       15.64194        8.86264
C         18.16452       16.54372        7.85437
C         17.71720       16.27371        6.55736
C         16.90861       15.16809        6.25917
C         19.04874       17.75052        8.19790
C         18.35608       18.71990        9.21351
C         16.98246       19.41944        8.97953
C         16.94049       20.28516        7.70545
C         15.80218       18.42800        8.94636
C         16.78604       20.35327       10.19462
C         20.32790       17.23133        8.90660
C         19.53384       18.49578        6.93881
C         11.16300        8.35885        0.57987
O         10.87626        9.58668       -0.06896
C          9.52129        9.64023       -0.57503
C          9.27876       11.01712       -1.16992
C          7.89032       11.13197       -1.80656
H          0.33111        0.41234       -1.85422
H          0.69386        2.14337       -1.98953
H          0.36065        1.42823       -0.40096
H          2.79882        0.73815       -2.16967
H          2.46739        0.03362       -0.59112
H          2.65219        2.31463        0.46496
H          2.98724        3.01746       -1.11513
H          5.06079        1.59403       -1.30764
H          4.72604        0.89292        0.27333
H          4.90990        3.17340        1.32742
H          5.23387        3.88002       -0.25348
H          7.31335        2.47560       -0.46026
H          6.99554        1.76476        1.11973
H          7.19331        4.02080        2.19708
H          7.44172        4.76584        0.61951
H          9.53457        3.41346        0.29981
H          9.30867        2.67229        1.88213
H          9.56668        4.88015        3.01061
H          9.60152        5.70384        1.44728
H         11.70896        4.50695        0.83381
H         11.70917        3.67802        2.41353
H         13.51900        5.73727        1.06119
H         13.97383        5.03096        2.62814
H         14.20794        7.13601        3.69637
H         15.83951        6.71010        1.69555
H         15.76846        8.35345        2.36506
H         15.54668        8.30416       -0.14324
H         13.97968        8.58210       -1.87005
H         12.42773        9.20785       -1.33459
H         11.97295        8.01073        2.98241
H         12.48729       10.42336        2.73042
H         14.16636       10.09079        2.33966
H         14.49149        9.13233        4.69394
H         12.83454        9.67400        5.07134
H         15.35446       10.72187        6.23756
H         13.79951       11.53733        6.58658
H         14.65013       13.60251        5.39289
H         16.20901       12.77044        5.10751
H         16.67061       13.85233        9.38465
H         18.08093       15.80729        9.89436
H         17.98908       16.93737        5.73754
H         16.58352       15.01150        5.23136
H         19.09270       19.51860        9.41005
H         18.26324       18.17403       10.16793
H         16.90713       19.67458        6.79356
H         17.80802       20.95781        7.63789
H         16.03543       20.91082        7.70761
H         15.82737       17.77827        8.06289
H         14.85061       18.98058        8.92908
H         15.79578       17.78072        9.83551
H         17.57726       21.11608       10.24524
H         16.80294       19.78939       11.13927
H         15.81960       20.87456       10.13260
H         20.10081       16.72650        9.85497
H         21.00628       18.06752        9.13038
H         20.86295       16.51847        8.26362
H         18.72260       18.86520        6.30305
H         20.17484       17.84599        6.32527
H         20.13508       19.36632        7.23576
H         10.53109        8.20979        1.46926
H         11.00671        7.50736       -0.11183
H          8.81908        9.43876        0.25464
H          9.38376        8.84597       -1.33385
H         10.05724       11.22311       -1.92202
H          9.39973       11.77061       -0.37681
H          7.76775       10.42826       -2.64231
H          7.72876       12.14341       -2.19929
H          7.09243       10.93035       -1.07770
