39

Br        -0.70981        3.21828        2.27361
C          0.90095        2.61692        1.30575
C          1.54119        1.44290        2.01877
C          0.65954        0.19676        2.04948
N          1.34494       -0.91852        2.69251
C          0.76293       -2.03407        3.10906
N          1.54969       -3.05654        3.58767
C          2.96287       -3.10201        3.55947
O          3.61955       -2.14057        3.19256
C          3.54874       -4.41807        3.98729
N         -0.57805       -2.16650        3.15608
C         -1.29269       -3.42799        3.26317
C         -1.04971       -4.33527        2.01463
O         -0.20807       -3.97019        1.20397
C         -1.82619       -5.58387        1.88357
C         -2.75384       -6.01052        2.85537
C         -3.45125       -7.20387        2.67860
C         -3.23553       -7.97606        1.53217
C         -2.31885       -7.55760        0.55896
C         -1.61610       -6.37074        0.73225
Br         3.22547        1.04117        1.05286
H          1.57224        3.47903        1.28282
H          0.57817        2.36613        0.28984
H          1.86162        1.72042        3.03052
H          0.36112       -0.08052        1.02390
H         -0.24455        0.46957        2.61976
H          2.38246       -0.96357        2.68567
H          1.07436       -3.90901        3.86449
H          2.99125       -4.88268        4.81161
H          4.58975       -4.26045        4.28517
H          3.53571       -5.10994        3.13032
H         -1.09315       -1.41190        2.71380
H         -2.35857       -3.18906        3.36664
H         -1.02006       -3.95738        4.19082
H         -2.94175       -5.42240        3.75488
H         -4.16832       -7.53129        3.43117
H         -3.78674       -8.90699        1.39526
H         -2.15764       -8.16020       -0.33500
H         -0.89914       -6.02608       -0.01299
