73

C          0.67351        1.48253       -0.48003
C          2.16144        1.81283       -0.62317
C          2.85763        0.92984       -1.66925
C          4.34972        1.24681       -1.78429
S          5.05585        0.14151       -3.06878
C          6.73051        0.50782       -2.91299
N          7.35620        1.36794       -2.13795
N          8.70463        1.21803       -2.40535
C          8.82109        0.30059       -3.32690
O          7.59954       -0.21048       -3.70341
C         10.06549       -0.20648       -3.91533
C         10.19876       -0.32364       -5.30576
C          9.11055        0.08694       -6.25164
C          9.10225        1.61397       -6.57274
O          7.89987        1.96775       -7.19182
Si         7.62891        2.09696       -8.86170
C          8.88755        3.27004       -9.61271
C          7.76796        0.39258       -9.65182
C          5.88913        2.76249       -8.98184
N         11.41890       -0.77205       -5.80620
C         11.70078       -0.85447       -7.26447
C         12.49212        0.37259       -7.74106
C         12.60902        0.37197       -9.26040
C         13.35370        1.59890       -9.89862
C         14.82833        1.92950       -9.44233
C         15.91826        0.80336       -9.55643
F         15.90523        0.23293      -10.76771
F         17.12363        1.34023       -9.32990
F         15.69722       -0.15249       -8.61780
F         15.23716        2.97535      -10.19274
F         14.78845        2.32114       -8.13208
F         13.34915        1.43452      -11.24002
F         12.61867        2.70996       -9.59164
F         13.21358       -0.77765       -9.69686
F         11.34668        0.38545       -9.80848
C         12.44351       -1.10819       -5.00150
C         12.36830       -1.01371       -3.61366
C         11.14270       -0.54551       -3.02903
C         11.06345       -0.48439       -1.61568
C         12.14902       -0.85241       -0.84388
C         13.36245       -1.29378       -1.42887
C         13.47379       -1.38063       -2.79670
H          0.19477        2.12788        0.26812
H          0.52449        0.43997       -0.16340
H          0.13863        1.62118       -1.43084
H          2.66449        1.68833        0.34997
H          2.28465        2.87281       -0.89915
H          2.36939        1.06919       -2.64827
H          2.72556       -0.13117       -1.40084
H          4.88551        1.05795       -0.84531
H          4.53115        2.28482       -2.09214
H          8.14179       -0.13933       -5.79871
H          9.13758       -0.48281       -7.18646
H          9.98183        1.87988       -7.18867
H          9.19008        2.17502       -5.62689
H          9.91369        2.88055       -9.57356
H          8.86756        4.24669       -9.11025
H          8.64888        3.43625      -10.67342
H          8.79449        0.00085       -9.62465
H          7.47694        0.44307      -10.71117
H          7.10111       -0.32995       -9.16076
H          5.80100        3.72846       -8.46664
H          5.16588        2.06808       -8.53317
H          5.60621        2.91232      -10.03352
H         10.75908       -0.95078       -7.80650
H         12.27086       -1.77624       -7.42838
H         13.49785        0.38000       -7.30220
H         11.99145        1.30203       -7.43905
H         13.34658       -1.46353       -5.49730
H         10.15043       -0.12894       -1.14416
H         12.06923       -0.80578        0.24253
H         14.20078       -1.57115       -0.79016
H         14.39508       -1.72674       -3.26699
