39

N          4.90547       -1.64021        2.80272
C          4.77796       -0.19708        3.03196
C          3.27866        0.13590        3.24056
C          2.51445        0.23320        1.87414
C          1.06333        0.51346        2.11764
C          0.21448       -0.58888        2.23719
C         -1.12533       -0.41225        2.57424
N         -1.65291        0.78279        2.79745
N         -0.83713        1.83235        2.68857
C          0.49286        1.79363        2.36526
C          1.18129        3.14503        2.36228
C          2.58632        3.28533        1.76897
C          3.10015        4.72635        1.85155
S          4.82485        4.70517        1.30413
O          5.59801        3.94203        2.26570
O          4.83526        4.37911       -0.09858
O          5.22203        6.26387        1.44700
C         -1.54075        3.10007        2.98339
O          2.68430       -0.84899        4.05559
H          5.71295       -2.03189        3.28154
H          4.99266       -1.87775        1.81626
H          5.20855        0.42806        2.23274
H          5.30018        0.05807        3.96336
H          3.19515        1.10185        3.76568
H          2.59234       -0.74446        1.37817
H          2.99417        0.96671        1.22186
H          0.60632       -1.59107        2.06901
H         -1.82248       -1.24412        2.67878
H          1.20010        3.49111        3.41288
H          0.51967        3.85411        1.84046
H          2.59346        2.97047        0.71608
H          3.30098        2.66019        2.31542
H          3.09896        5.11609        2.87934
H          2.56228        5.42266        1.19359
H          5.85936        6.34525        2.18369
H         -2.55614        2.82385        3.27218
H         -1.56451        3.73789        2.09102
H         -1.04294        3.62908        3.80458
H          3.21452       -1.65910        3.84627
