72

C         -0.07984       -5.35953        6.87468
C          1.40281       -5.31576        7.25249
C          2.16096       -4.15916        6.59233
C          3.64518       -4.10144        6.96677
C          4.39122       -2.92428        6.33010
C          5.86778       -2.84897        6.73056
C          6.60436       -1.64688        6.13031
C          8.06574       -1.55308        6.58216
C          8.79137       -0.32045        6.03292
C         10.23311       -0.18302        6.52392
S         11.28057       -1.57498        5.84844
C         11.88926       -0.54004        4.65021
N         11.65714        0.74172        4.79383
C         10.96734        1.09609        6.06914
C         11.95185        1.63160        7.12519
C         12.77248        2.85535        6.68723
O         12.00577        3.82625        5.98143
C         11.16633        4.68171        6.78409
C         11.91150        5.83295        7.45209
C         10.93836        6.82943        8.09447
C         11.63055        7.99384        8.81174
C         10.63764        8.99878        9.40035
C         11.78971        1.69276        3.68903
C         10.51724        1.62460        2.80035
C         10.68318        2.49109        1.52436
N         11.42761        1.71113        0.52808
O         10.25576        0.28697        2.43410
H         -0.59637       -6.19430        7.36800
H         -0.21256       -5.48230        5.78950
H         -0.59438       -4.43210        7.16737
H          1.88314       -6.27003        6.97732
H          1.50163       -5.23421        8.34835
H          1.67832       -3.20470        6.86832
H          2.06308       -4.23880        5.49506
H          4.13425       -5.04721        6.67405
H          3.74103       -4.04011        8.06523
H          3.89024       -1.98160        6.61286
H          4.31128       -2.99055        5.23078
H          6.37871       -3.78024        6.42946
H          5.94272       -2.80596        7.83148
H          6.07671       -0.71881        6.41156
H          6.56358       -1.69879        5.02877
H          8.59855       -2.46851        6.27091
H          8.10669       -1.53363        7.68523
H          8.26054        0.59132        6.36134
H          8.77122       -0.31631        4.92997
H         10.28232       -0.27583        7.61794
H         12.44970       -0.91868        3.79619
H         10.23021        1.87606        5.82962
H         12.64765        0.83488        7.43343
H         11.34440        1.87404        8.01090
H         13.56855        2.54945        5.99163
H         13.27321        3.29069        7.56794
H         10.61325        4.08737        7.53548
H         10.42406        5.07798        6.07472
H         12.52571        6.34063        6.69124
H         12.60648        5.44926        8.21765
H         10.28497        6.30244        8.81210
H         10.26783        7.23243        7.31498
H         12.30419        8.50795        8.10579
H         12.27649        7.59577        9.61216
H         10.01417        9.45128        8.61491
H         11.15447        9.81433        9.92338
H          9.96170        8.51765       10.12291
H         12.67630        1.41040        3.10351
H         11.92508        2.69738        4.11094
H          9.66079        1.99519        3.38648
H         11.14647        3.46014        1.77073
H          9.67971        2.69783        1.13137
H         12.41523        1.95666        0.48968
H         11.04974        1.83103       -0.40879
H         10.69619        0.21166        1.54768
