51

C         11.36227        5.92360       -0.49536
C         10.89093        4.46973       -0.42583
C         11.01577        3.86253        0.97502
C         10.56028        2.40243        1.04612
C         10.69376        1.78864        2.44386
C         10.26816        0.31519        2.47984
C         10.41976       -0.28584        3.87788
S          9.94705       -2.05629        3.77494
C         10.17149       -2.53279        5.41158
N         10.55235       -1.84211        6.46721
N         10.55438       -2.72841        7.52952
C         10.18029       -3.88433        7.05358
O          9.91601       -3.85969        5.71530
C         10.03610       -5.09355        7.81298
C          9.69185       -6.38658        7.49140
N          9.71890       -7.10785        8.67241
C         10.07218       -6.30725        9.70932
N         10.27889       -5.08592        9.17752
C         10.20458       -6.67627       11.13970
C         11.52871       -7.43842       11.50082
N         12.64650       -6.71523       10.90512
N         11.59075       -7.47353       12.94956
N         11.40488       -8.81653       10.96887
N          9.51852       -8.49133        8.71513
H         11.26693        6.32853       -1.51175
H         12.41735        6.01480       -0.19816
H         10.77270        6.56583        0.17538
H         11.47123        3.85847       -1.13747
H          9.84069        4.40483       -0.75665
H         10.42767        4.46622        1.68826
H         12.06548        3.93414        1.30982
H         11.14807        1.80292        0.32936
H          9.51004        2.32935        0.71463
H         10.08590        2.36604        3.16080
H         11.73926        1.87540        2.78494
H         10.87815       -0.25751        1.76192
H          9.22105        0.22426        2.14821
H          9.76390        0.19920        4.61218
H         11.45510       -0.23507        4.23889
H          9.45198       -6.85783        6.54689
H         10.59259       -4.25900        9.68435
H          9.35314       -7.30257       11.44245
H         10.16567       -5.75497       11.73501
H         13.52409       -6.96024       11.36398
H         12.74991       -6.89778        9.90451
H         11.75068       -6.54548       13.34592
H         12.34012       -8.08813       13.27125
H         12.33268       -9.23293       10.86584
H         10.89241       -9.39023       11.64603
H          8.53232       -8.68537        8.90874
H         10.13552       -8.85868        9.46850
