68

C          4.14147       -5.11603       -1.05229
C          5.49315       -4.44649       -1.31117
C          5.38645       -2.92497       -1.47564
C          6.74416       -2.26077       -1.74997
C          6.59812       -0.75883       -1.92476
O          7.92265       -0.11687       -2.13034
C          8.37390       -0.04631       -3.36334
O          7.81816       -0.41371       -4.39080
C          9.77853        0.57046       -3.42788
N         10.17292        0.54005       -4.87570
C         10.39957        1.89373       -5.55648
C          9.17325        2.79376       -5.38548
C          9.30897        4.13734       -6.11226
O          8.25049        4.94845       -5.65906
C          8.16601        6.20118       -6.36033
C          6.99203        6.98380       -5.80741
C         10.68949        1.61140       -7.04181
O         11.72972        0.67197       -7.25398
C         11.39449       -0.58639       -6.68542
C         11.27955       -0.47162       -5.16538
C         12.61322       -0.11550       -4.50711
C         13.41146       -1.40100       -4.26633
O         12.90813       -2.50937       -4.26912
O         14.69800       -1.11702       -4.04429
C         15.59719       -2.25514       -3.79573
C         16.23444       -2.73777       -5.08970
C         17.25773       -3.85431       -4.83567
C         17.94118       -4.33340       -6.11906
H          4.25342       -6.20144       -0.93107
H          3.44287       -4.94559       -1.88462
H          3.66985       -4.72752       -0.13766
H          5.95219       -4.87663       -2.21726
H          6.18436       -4.67342       -0.48232
H          4.93795       -2.48968       -0.56625
H          4.69100       -2.69575       -2.30114
H          7.18727       -2.69465       -2.66076
H          7.43788       -2.46408       -0.91883
H          6.22278       -0.26716       -1.01955
H          5.96311       -0.49814       -2.78128
H         10.47639       -0.03084       -2.83428
H          9.78205        1.59166       -3.03310
H          9.29453        0.13415       -5.29943
H         11.28708        2.33348       -5.07705
H          9.00209        3.03231       -4.32553
H          8.27005        2.27798       -5.74922
H          9.25092        4.00383       -7.21077
H         10.29324        4.60318       -5.88978
H          8.03854        6.00346       -7.44194
H          9.11317        6.75893       -6.23176
H          6.05549        6.42470       -5.93249
H          6.89475        7.93903       -6.34002
H          7.13060        7.19903       -4.73999
H         11.01007        2.54224       -7.52516
H          9.75625        1.27099       -7.53678
H         12.19636       -1.28951       -6.94241
H         10.44988       -0.97120       -7.11806
H         10.92268       -1.42842       -4.75455
H         12.48735        0.37352       -3.52816
H         13.20258        0.57256       -5.12688
H         15.02249       -3.04801       -3.29950
H         16.34404       -1.84964       -3.10135
H         16.72525       -1.88593       -5.58786
H         15.44809       -3.10306       -5.77025
H         16.75663       -4.70423       -4.34371
H         18.02037       -3.49546       -4.12462
H         17.20985       -4.72830       -6.83925
H         18.66341       -5.13276       -5.90823
H         18.48548       -3.51450       -6.61189
