73

O          1.29259       -1.61128        0.15492
C          2.35866       -1.02985        0.31182
N          2.47522        0.31096        0.59248
C          1.45463        1.28373        0.71149
C          1.83160        2.54747        1.19544
C          0.88602        3.56164        1.32762
C         -0.44627        3.32757        0.97379
C         -0.81464        2.07244        0.48331
C          0.12020        1.04547        0.34530
C          3.67616       -1.81315        0.21093
C          4.90653       -1.08793       -0.37581
C          5.78339       -1.86893       -1.37472
S          6.13068       -3.59168       -0.74152
C          5.07973       -4.25745       -1.88892
N          4.65290       -3.44052       -2.81272
C          5.28894       -2.09561       -2.84095
C          4.26865       -1.06635       -3.34947
O          3.02708       -1.34002       -2.73176
C          1.96867       -0.46514       -3.03100
C          2.10601        0.89806       -2.76794
C          1.04231        1.78281       -2.96986
C          1.17680        3.24592       -2.64471
C         -0.16327        1.24693       -3.44574
C         -0.28501       -0.11578       -3.70506
C          0.77345       -1.01835       -3.51199
C          0.58073       -2.49152       -3.84438
C          1.45778       -2.94770       -5.02602
C          0.71089       -3.42775       -2.62943
C          6.50184       -2.19938       -3.83492
C          7.38335       -0.97488       -3.88430
C          7.08246        0.11640       -4.71475
C          7.89982        1.24471       -4.73431
C          9.05027        1.32661       -3.93166
C          9.35659        0.22825       -3.11529
C          8.54098       -0.90373       -3.09466
C          9.94644        2.53474       -3.98213
H          3.40445        0.65442        0.81463
H          2.87079        2.73165        1.48089
H          1.19078        4.53451        1.71377
H         -1.19011        4.11672        1.08326
H         -1.85048        1.88088        0.20127
H         -0.17041        0.07100       -0.03460
H          3.39268       -2.68167       -0.39195
H          3.90903       -2.20041        1.21526
H          5.57210       -0.74548        0.43074
H          4.59466       -0.17637       -0.90947
H          6.76090       -1.37202       -1.44255
H          4.77231       -5.30383       -1.85909
H          3.93958       -3.70617       -3.49580
H          4.17623       -1.15574       -4.44812
H          4.64591       -0.05204       -3.14009
H          3.04639        1.28283       -2.36766
H          2.22007        3.52235       -2.44663
H          0.59050        3.49855       -1.74888
H          0.80638        3.87365       -3.46703
H         -1.01778        1.90524       -3.61062
H         -1.23474       -0.50542       -4.07786
H         -0.46195       -2.57470       -4.19259
H          2.53236       -2.91369       -4.77965
H          1.31609       -2.30384       -5.90427
H          1.21456       -3.97928       -5.31704
H          1.73456       -3.44183       -2.23109
H          0.42846       -4.45321       -2.90857
H          0.06500       -3.10337       -1.80507
H          6.08807       -2.42016       -4.83000
H          7.10501       -3.07119       -3.54005
H          6.21195        0.07971       -5.37329
H          7.64705        2.07511       -5.39648
H         10.25521        0.25250       -2.49613
H          8.82966       -1.75743       -2.47513
H         10.62109        2.47994       -4.85049
H         10.57270        2.61129       -3.08465
H          9.36754        3.46240       -4.08105
