80

C          0.71286        0.20379        0.12171
C          2.23949        0.11472        0.05011
C          2.78990       -1.25875        0.45038
C          4.31799       -1.34930        0.38832
C          4.87387       -2.71686        0.79800
C          6.40311       -2.79630        0.74592
C          6.96464       -4.15680        1.17076
C          8.49426       -4.22991        1.12196
C          9.05876       -5.58475        1.56099
C         10.58791       -5.65890        1.49796
C         11.15123       -7.01759        1.92705
C         12.67943       -7.09732        1.83614
C         13.23523       -8.47112        2.22706
C         14.75974       -8.54899        2.10280
C         15.30760       -9.95472        2.47026
C         16.79059      -10.00554        2.31619
C         17.65674       -9.60707        3.36226
N         18.97336       -9.59936        3.27195
N         19.52555       -9.98889        2.11889
C         18.81439      -10.36421        1.02288
C         17.41955      -10.38138        1.13536
C         19.51344      -10.80776       -0.24406
C         19.76009      -12.33463       -0.09614
O         20.52036      -12.77174        0.74742
O         19.04953      -13.04858       -0.96876
C         19.20574      -14.51530       -0.91031
C         18.21719      -15.12351        0.06458
C         18.79151      -10.35718       -1.51931
C         20.99652       -9.88944        2.13438
C         21.45067       -8.63035        1.37939
O         20.71593       -7.94799        0.69584
O         22.75526       -8.44419        1.58496
C         23.35216       -7.29760        0.90919
H          0.35264        1.20005       -0.16981
H          0.34846        0.00421        1.14058
H          0.23776       -0.52962       -0.54698
H          2.68452        0.88597        0.70167
H          2.57559        0.35527       -0.97287
H          2.35009       -2.03243       -0.20389
H          2.45085       -1.50251        1.47295
H          4.75476       -0.57049        1.03834
H          4.65627       -1.11007       -0.63545
H          4.44488       -3.49709        0.14469
H          4.53123       -2.95854        1.81966
H          6.83024       -2.00904        1.39202
H          6.74597       -2.56339       -0.27775
H          6.54083       -4.94557        0.52440
H          6.62088       -4.38957        2.19403
H          8.91780       -3.43452        1.76027
H          8.83747       -4.00703        0.09622
H          8.62937       -6.38153        0.92841
H          8.72408       -5.80394        2.59009
H         11.01967       -4.86597        2.13348
H         10.92092       -5.43574        0.46902
H         10.70782       -7.81046        1.29956
H         10.83378       -7.23721        2.96125
H         13.12729       -6.32196        2.48153
H         12.99568       -6.85585        0.80633
H         12.77769       -9.24730        1.58986
H         12.93817       -8.71094        3.26224
H         15.23199       -7.79403        2.75312
H         15.06728       -8.30460        1.07247
H         14.83835      -10.70983        1.82270
H         15.03192      -10.19160        3.50913
H         17.27206       -9.28428        4.33178
H         16.83426      -10.70045        0.27388
H         20.51851      -10.37101       -0.25876
H         20.24526      -14.73446       -0.63740
H         19.01772      -14.82993       -1.94307
H         18.42116      -14.80447        1.09478
H         18.30566      -16.21804        0.02953
H         17.18451      -14.86097       -0.20046
H         17.81181      -10.83099       -1.64802
H         19.39659      -10.62897       -2.39196
H         18.67037       -9.26655       -1.51364
H         21.43159      -10.79911        1.70000
H         21.29046       -9.82863        3.18678
H         24.41401       -7.34365        1.16234
H         22.90002       -6.37057        1.28022
H         23.20113       -7.37954       -0.17342
