66

C          1.12640       -0.22514        0.74521
C          2.56789       -0.21230        0.23174
C          3.13261        1.20495        0.07658
C          4.58679        1.21558       -0.41875
C          5.10004        2.64370       -0.54991
N          6.56897        2.75982       -0.91435
C          7.05976        4.17786       -0.85425
C          6.83802        4.66528       -2.28605
O          7.17331        3.50163       -3.06884
C          6.89995        2.31567       -2.37150
C          8.07693        1.30285       -2.45988
C          9.42005        1.98591       -2.08784
C         10.70400        1.11281       -2.14127
C         11.46202        1.27277       -3.46775
C         11.62378        1.46148       -0.96082
C          7.77950        0.11093       -1.52097
O          7.80467        0.47140       -0.11745
C          8.06293        0.76785       -3.90570
C          7.68086        5.86803       -2.73173
C          9.17656        5.67568       -2.64461
C          9.90750        5.26825       -3.77075
C         11.28291        5.05591       -3.69380
C         11.97958        5.22381       -2.48529
C         11.24891        5.64347       -1.36481
C          9.87428        5.87876       -1.44530
C         13.46439        4.98086       -2.40915
H          0.75345       -1.25206        0.85052
H          0.45051        0.30539        0.05907
H          1.04836        0.25819        1.72984
H          2.62073       -0.73249       -0.73923
H          3.21191       -0.78454        0.91989
H          3.07336        1.72935        1.04579
H          2.49845        1.77818       -0.62136
H          4.63954        0.69271       -1.38695
H          5.22182        0.65494        0.28487
H          4.99600        3.16922        0.41000
H          4.53504        3.20842       -1.30544
H          7.11263        2.11258       -0.29248
H          8.12790        4.16761       -0.60713
H          6.50131        4.73642       -0.09584
H          5.77162        4.91558       -2.44271
H          5.97535        1.84229       -2.74691
H          9.33465        2.38985       -1.06546
H          9.55297        2.86287       -2.73266
H         10.43121        0.04735       -2.03965
H         11.80181        2.31059       -3.58887
H         10.84468        1.02510       -4.34034
H         12.34689        0.62179       -3.49302
H         11.90486        2.52491       -0.98623
H         12.54819        0.86874       -0.98540
H         11.13780        1.27240        0.00936
H          8.49441       -0.70062       -1.71090
H          6.77577       -0.29585       -1.71113
H          8.70969        0.36598        0.21618
H          8.26797        1.57091       -4.62417
H          7.08791        0.32510       -4.15786
H          8.82205       -0.01279       -4.04054
H          7.36019        6.72834       -2.12241
H          7.38834        6.09912       -3.76591
H          9.39120        5.11890       -4.72117
H         11.82884        4.75494       -4.59051
H         11.76710        5.80864       -0.41811
H          9.34691        6.25021       -0.56239
H         14.01696        5.73066       -2.99464
H         13.73043        3.99583       -2.81906
H         13.83000        5.02930       -1.37612
