70

C          2.58396        0.40567        1.10988
C          3.41796       -0.17408       -0.04047
C          3.05863       -1.60779       -0.51847
C          2.11768       -1.72107       -1.74667
C          0.57703       -1.54252       -1.63100
C         -0.04749       -2.16118       -2.91212
C         -1.56740       -2.04521       -3.08740
C         -2.01930       -2.72306       -4.38553
S         -3.83652       -2.72903       -4.43276
C         -4.13289       -3.51206       -6.02417
S         -2.92627       -3.91666       -7.08110
N         -5.46725       -3.73965       -6.23292
C         -6.48870       -3.24105       -5.34407
C         -7.21357       -4.14217       -4.55457
C         -8.23162       -3.67000       -3.72577
C         -8.52789       -2.30379       -3.68503
C         -7.80635       -1.40851       -4.47976
C         -6.78882       -1.87295       -5.31526
C         -5.92908       -4.51586       -7.36142
C         -6.71747       -3.90040       -8.33670
C         -7.20219       -4.65557       -9.40707
C         -6.90086       -6.01640       -9.49967
C         -6.11787       -6.62658       -8.51414
C         -5.63311       -5.88072       -7.44039
C          0.15374       -0.04589       -1.45561
C         -0.82777       -0.00861       -0.28937
N         -0.36288       -1.14738        0.59707
C          0.00255       -2.24623       -0.37578
C         -1.31416       -1.57190        1.68864
C         -1.53509       -0.48719        2.73156
C          4.35357       -2.37363       -0.84917
H          3.08869        1.26409        1.57241
H          2.44350       -0.33789        1.91336
H          1.60170        0.78785        0.79132
H          4.46143       -0.19701        0.30581
H          3.41448        0.51927       -0.89680
H          2.60090       -2.13734        0.34043
H          2.27113       -2.72957       -2.16243
H          2.47495       -1.03038       -2.52855
H          0.23340       -3.22708       -2.94608
H          0.45146       -1.69749       -3.77858
H         -1.88578       -0.99000       -3.10529
H         -2.09644       -2.51620       -2.24066
H         -1.66513       -3.76201       -4.44201
H         -1.64158       -2.20018       -5.27449
H         -6.97864       -5.20568       -4.60278
H         -8.79846       -4.37263       -3.11410
H         -9.32988       -1.93845       -3.04280
H         -8.04666       -0.34486       -4.46254
H         -6.22876       -1.18632       -5.95057
H         -6.94285       -2.83659       -8.25959
H         -7.81369       -4.17576      -10.17173
H         -7.27706       -6.60293      -10.33822
H         -5.88324       -7.68939       -8.58166
H         -5.01544       -6.34471       -6.67172
H         -0.31267        0.35337       -2.36364
H          1.02638        0.58345       -1.24749
H         -1.85722       -0.24719       -0.58953
H         -0.82784        0.92474        0.28436
H          0.51133       -0.82658        1.04698
H         -0.92757       -2.78689       -0.59085
H          0.70183       -2.93101        0.11717
H         -0.87684       -2.47348        2.13893
H         -2.24802       -1.86164        1.18723
H         -0.59084       -0.16493        3.19307
H         -2.16801       -0.89103        3.53162
H         -2.04740        0.39219        2.32194
H          4.88805       -1.89696       -1.68474
H          4.14646       -3.41324       -1.13715
H          5.03253       -2.38957        0.01361
