84

C          1.73721        1.36229        0.89412
C          3.11785        0.73252        0.69558
C          3.21936       -0.09758       -0.58902
C          4.59537       -0.73613       -0.79953
C          4.68407       -1.55822       -2.09141
C          6.06649       -2.20492       -2.25724
C          6.43851       -2.99571       -3.52250
N          5.68609       -4.33888       -3.56963
C          4.26392       -4.35473       -4.13566
C          3.77397       -5.80235       -4.07378
C          2.30919       -5.95676       -4.47750
O          1.96333       -7.31987       -4.18676
C          0.69712       -7.68935       -4.60563
O         -0.03924       -6.91400       -5.17172
C          0.41722       -9.12947       -4.25193
C         -0.97077       -9.60899       -4.68251
C         -1.23411      -11.06121       -4.27890
C          4.29854       -3.71348       -5.51925
C          4.92816       -2.31604       -5.49621
C          6.35349       -2.33368       -4.91666
C          7.04429       -0.95696       -4.90040
C          7.34595       -0.38316       -6.29011
C          8.12949        0.93220       -6.22020
C          8.44465        1.53295       -7.59380
C          9.21721        2.85369       -7.51247
C          9.52130        3.47470       -8.87961
C         10.26995        4.80884       -8.78983
C         10.54493        5.45499      -10.15146
C         11.27809        6.79812      -10.05610
C         11.52122        7.45709      -11.41616
H          1.69520        1.94855        1.82143
H          0.95112        0.59486        0.95152
H          1.48111        2.03663        0.06350
H          3.36130        0.09297        1.56077
H          3.88683        1.52290        0.67832
H          2.97727        0.54266       -1.45563
H          2.44780       -0.88791       -0.57268
H          4.83866       -1.38071        0.06334
H          5.37016        0.04938       -0.81779
H          4.46005       -0.90363       -2.94728
H          3.88816       -2.32154       -2.07016
H          6.26287       -2.86218       -1.38987
H          6.83073       -1.41664       -2.17623
H          7.48507       -3.30911       -3.37672
H          5.66467       -4.73407       -2.61921
H          6.24072       -4.99424       -4.13929
H          3.67579       -3.72944       -3.44955
H          3.88034       -6.18577       -3.04432
H          4.39545       -6.44253       -4.72363
H          2.14383       -5.75219       -5.54529
H          1.65754       -5.27551       -3.90512
H          0.55722       -9.23745       -3.16270
H          1.21264       -9.74605       -4.70416
H         -1.06987       -9.49470       -5.77224
H         -1.73280       -8.94930       -4.24173
H         -0.50432      -11.74744       -4.73352
H         -2.23362      -11.38147       -4.60124
H         -1.17979      -11.19434       -3.18818
H          3.26888       -3.66181       -5.89914
H          4.84888       -4.37353       -6.21406
H          4.28604       -1.62481       -4.93046
H          4.96711       -1.92792       -6.52220
H          6.95535       -2.98003       -5.58668
H          7.99655       -1.04474       -4.34896
H          6.42858       -0.23843       -4.33406
H          6.40906       -0.21256       -6.84546
H          7.92009       -1.12331       -6.87467
H          9.07156        0.76552       -5.66889
H          7.55673        1.66490       -5.62503
H          7.50256        1.69456       -8.14660
H          9.02332        0.80450       -8.18832
H         10.16247        2.69044       -6.96567
H          8.63989        3.57450       -6.90716
H          8.57522        3.62461       -9.42921
H         10.11103        2.76258       -9.48324
H         11.22518        4.65675       -8.25694
H          9.68673        5.51003       -8.16706
H          9.58925        5.59956      -10.68587
H         11.13540        4.76043      -10.77492
H         12.24169        6.64909       -9.53987
H         10.69627        7.48195       -9.41479
H         12.12913        6.81379      -12.07006
H         12.04907        8.41482      -11.31105
H         10.57381        7.65589      -11.93915
