62

C          0.70950       -0.28177        0.48978
C          2.18729        0.03563        0.39460
O          2.93211       -1.13125        0.79020
C          4.33227       -0.97056        0.68335
C          4.99510       -2.28690        1.17591
C          4.74381       -2.35036        2.71059
C          4.85106       -3.68540        3.46127
C          4.68524       -3.45341        4.97361
C          5.15874       -4.56873        5.88624
C          5.20249       -5.91388        5.49026
C          5.63575       -6.90843        6.36979
C          6.02663       -6.57854        7.67042
C          5.98670       -5.24009        8.08100
C          5.56330       -4.24819        7.19214
N          4.25955       -3.40718        0.53702
C          4.67228       -4.11833       -0.51310
N          3.95757       -5.18756       -0.92411
N          5.80276       -3.78539       -1.14771
C          6.51032       -2.54160       -0.81726
C          6.48521       -2.32914        0.70795
C          7.39937       -3.38694        1.37405
C          8.03768       -3.00705        2.71744
C          8.69973       -4.23112        3.36883
C          8.87642       -4.07362        4.87807
S          9.47608       -5.61966        5.60222
O          8.63597       -6.69900        5.12125
O         10.90952       -5.67005        5.47358
O          9.17599       -5.38606        7.17163
H          0.11970        0.59624        0.19518
H          0.42816       -0.55079        1.51637
H          0.43880       -1.11048       -0.17835
H          2.45936        0.87924        1.05486
H          2.47013        0.31249       -0.63829
H          4.69381       -0.13416        1.31230
H          4.60813       -0.74715       -0.36424
H          3.73088       -1.94839        2.87243
H          5.42420       -1.61418        3.16565
H          5.81269       -4.17944        3.27970
H          4.08077       -4.38500        3.10043
H          3.62577       -3.23226        5.19225
H          5.23172       -2.53776        5.25425
H          4.90533       -6.20025        4.48014
H          5.68299       -7.94418        6.03430
H          6.35512       -7.35763        8.35935
H          6.28201       -4.96744        9.09542
H          5.54434       -3.20633        7.51990
H          3.26768       -3.43636        0.76368
H          3.20026       -5.55183       -0.36060
H          4.09304       -5.58686       -1.84393
H          6.23444       -4.46345       -1.76515
H          6.05641       -1.70817       -1.37257
H          7.54290       -2.64642       -1.16826
H          6.89998       -1.32671        0.90349
H          8.21535       -3.61717        0.66993
H          6.85085       -4.33446        1.49245
H          7.28368       -2.59982        3.40503
H          8.77246       -2.20043        2.56765
H          9.66666       -4.44788        2.89018
H          8.06657       -5.11708        3.20291
H          7.91446       -3.86131        5.36614
H          9.60267       -3.29958        5.16018
H          8.24724       -5.65939        7.35272
