104

O          4.30522       -3.36596        0.33833
C          3.72522       -2.59277        1.09992
C          2.89879       -3.09391        2.22891
C          2.18579       -2.24687        3.10029
C          1.43833       -2.78543        4.14631
C          1.39639       -4.17047        4.33617
C          2.09942       -5.02068        3.47394
C          2.84356       -4.48814        2.42684
C          3.83223       -1.06773        0.92386
C          4.83324       -0.55222       -0.14043
C          6.24771       -1.10643        0.20122
N          7.09870       -1.29969       -0.98225
C          6.78407       -0.95217       -2.23863
N          7.75817       -0.83038       -3.15814
C          7.60297       -0.71363       -4.60943
C          8.76818       -1.43179       -5.30209
O          8.85224       -0.93840       -6.61674
C          9.80120       -1.66533       -7.40919
C         10.08226       -0.88004       -8.68535
O         10.83490       -1.77104       -9.49690
C         11.47039       -1.28504      -10.62067
C         12.21757       -2.22883      -11.33864
C         12.91422       -1.84341      -12.47576
C         12.91003       -0.51358      -12.94076
C         12.13700        0.40118      -12.21769
C         11.41776        0.03531      -11.07063
C         13.69331       -0.13158      -14.20876
C         15.17235       -0.63519      -14.15529
C         16.25768       -0.05102      -13.19812
C         16.79901        1.30638      -13.69458
C         15.78057        0.09525      -11.74098
C         17.43063       -1.05619      -13.22449
C         13.02969       -0.86846      -15.40293
C         13.60837        1.37554      -14.50820
N          5.49293       -0.76215       -2.54256
C          4.45613       -1.06664       -1.55361
C          4.94132        1.01764       -0.06117
C          3.88397        2.00987       -0.71768
C          2.35812        2.05523       -0.30657
C          1.88793        2.39116        1.16844
C          2.27304        3.74740        1.89048
C          1.86307        5.15627        1.29973
C          0.34751        5.54509        1.06329
C         -0.64938        5.50346        2.28180
F         -0.14437        6.15900        3.33931
F         -1.79642        6.09134        1.90759
F         -0.91737        4.23326        2.63905
F          0.37755        6.82463        0.61556
F         -0.15885        4.75469        0.08123
F          2.39114        6.06350        2.15784
F          2.48146        5.29663        0.09685
F          1.74230        3.65089        3.13650
F          3.62599        3.76972        2.01028
F          0.54014        2.28176        1.14842
F          2.37361        1.40533        1.98167
F          1.77324        2.93956       -1.14223
F          1.83369        0.81691       -0.58272
F          4.38351        3.25530       -0.56469
F          3.86760        1.73607       -2.06573
F          5.08250        1.39239        1.24480
F          6.11224        1.39801       -0.69288
H          2.20166       -1.16482        2.97047
H          0.88743       -2.12514        4.81585
H          0.81400       -4.58888        5.15784
H          2.06488       -6.10010        3.62305
H          3.39710       -5.13351        1.74486
H          4.09040       -0.62910        1.89663
H          2.82107       -0.70595        0.69927
H          6.12968       -2.08480        0.67756
H          6.76364       -0.43209        0.89912
H          8.02499       -1.67918       -0.81692
H          8.70285       -0.71781       -2.80104
H          7.60188        0.34293       -4.92197
H          6.64655       -1.16494       -4.90596
H          8.60761       -2.52719       -5.28211
H          9.71226       -1.22887       -4.74863
H          9.40159       -2.66267       -7.66600
H         10.74225       -1.80593       -6.84686
H         10.65308        0.03601       -8.45467
H          9.13683       -0.58813       -9.17780
H         12.24176       -3.26072      -10.98726
H         13.48609       -2.60544      -13.00690
H         12.08311        1.44146      -12.53639
H         10.82825        0.79018      -10.55102
H         15.57175       -0.53932      -15.17977
H         15.13029       -1.72026      -13.96960
H         16.06272        2.11415      -13.60699
H         17.11164        1.24881      -14.74785
H         17.67845        1.60211      -13.10337
H         14.97751        0.83681      -11.63784
H         16.61823        0.42100      -11.10589
H         15.40425       -0.85546      -11.33805
H         17.81154       -1.20124      -14.24674
H         17.12082       -2.03903      -12.83898
H         18.26625       -0.69870      -12.60491
H         13.10565       -1.95989      -15.30035
H         13.51509       -0.58512      -16.34838
H         11.96355       -0.61085      -15.47159
H         13.94647        1.99905      -13.67091
H         12.57817        1.67187      -14.75345
H         14.23310        1.61959      -15.37820
H          5.26408       -0.16166       -3.32677
H          4.33887       -2.15515       -1.47532
H          3.51414       -0.64233       -1.91041
