95

C          1.06618       -0.02974        0.83079
C          2.54889       -0.17950        0.48106
C          3.32683       -1.04021        1.48247
C          4.81207       -1.19514        1.13995
C          5.57554       -2.09712        2.11526
C          7.06213       -2.25326        1.77692
C          7.79624       -3.22584        2.70553
C          9.27602       -3.42080        2.35413
C          9.94505       -4.49692        3.21753
C         11.39628       -4.75006        2.84465
O         11.84775       -5.89397        3.59469
C         13.16840       -6.29990        3.27678
C         13.48944       -7.46350        4.18453
C         13.49266       -8.74236        3.65181
C         13.70181       -9.88115        4.45667
C         13.67899      -11.19969        3.92937
C         13.86751      -12.26897        4.75766
N         14.06769      -12.04841        6.09889
C         14.10659      -10.83647        6.68712
C         13.93501       -9.69322        5.86526
C         13.97050       -8.37628        6.38583
C         13.73986       -7.26957        5.58516
C         13.74963       -5.90129        6.22039
C         12.34697       -5.53134        6.75468
C         12.13831       -4.05660        7.10299
C         12.40715       -3.58281        8.58384
C         13.83365       -3.71595        9.24801
C         15.11035       -2.97973        8.67484
C         15.18204       -1.40700        8.52114
C         15.00746       -0.43721        9.75895
C         15.96943       -0.51131       11.01411
C         17.51986       -0.33874       10.80327
F         17.79062        0.75512       10.07300
F         18.09592       -0.21089       12.01140
F         18.04922       -1.41616       10.19425
F         15.56754        0.49892       11.82740
F         15.76748       -1.68890       11.65972
F         15.11318        0.81411        9.24260
F         13.74814       -0.59375       10.24118
F         16.40308       -1.15383        7.97619
F         14.23634       -1.03980        7.62077
F         16.14015       -3.37080        9.46874
F         15.34292       -3.47508        7.42472
F         13.68988       -3.34340       10.54299
F         14.16341       -5.04587        9.23610
F         12.02113       -2.28737        8.68934
F         11.59110       -4.33638        9.37929
F         12.83192       -3.23353        6.25106
F         10.80418       -3.76961        6.91979
C         14.27293      -10.79325        8.17519
C         12.90848      -10.64911        8.91110
C         13.02875      -10.09679       10.33724
S         13.39371       -8.32683       10.30527
O         14.77329       -8.12322        9.89190
O         12.31799       -7.67119        9.60269
O         13.26624       -7.94389       11.86408
H          0.53883        0.59275        0.09482
H          0.93424        0.44009        1.81699
H          0.56130       -1.00699        0.86161
H          3.01612        0.81798        0.42010
H          2.64728       -0.61942       -0.52597
H          2.85999       -2.03959        1.54135
H          3.22816       -0.60355        2.49214
H          5.28730       -0.19892        1.11143
H          4.90887       -1.60383        0.11846
H          5.10110       -3.09447        2.13155
H          5.47331       -1.69941        3.14038
H          7.55356       -1.26533        1.81104
H          7.16210       -2.60429        0.73450
H          7.28820       -4.20584        2.67238
H          7.71084       -2.87726        3.74933
H          9.81195       -2.46241        2.46225
H          9.36142       -3.70107        1.28963
H          9.39527       -5.44633        3.11003
H          9.88855       -4.21716        4.28149
H         12.03575       -3.87796        3.07964
H         11.49538       -4.96213        1.76267
H         13.89097       -5.47243        3.42495
H         13.24463       -6.61345        2.21837
H         13.30988       -8.87934        2.58462
H         13.51143      -11.36699        2.86619
H         13.87100      -13.30749        4.43679
H         14.19973      -12.86262        6.69819
H         14.18818       -8.21253        7.44056
H         14.06852       -5.14619        5.49221
H         14.48424       -5.90049        7.03336
H         12.08609       -6.14181        7.62938
H         11.60862       -5.73467        5.96806
H         14.92710       -9.94996        8.43377
H         14.78834      -11.70248        8.52048
H         12.41709      -11.63123        8.96489
H         12.23373       -9.99661        8.33833
H         13.81787      -10.58123       10.92872
H         12.07418      -10.18786       10.87262
H         14.15633       -7.71891       12.19991
