48

O          5.69494        5.83619        4.00703
C          5.03499        6.52170        2.93027
C          4.25754        5.50737        2.12258
O          5.18456        4.60122        1.50162
C          4.72068        3.29637        1.25712
O          5.70420        2.34465        1.65577
C          5.99788        2.31369        3.03492
N          7.45654        2.47703        3.20429
C          8.05470        3.79388        2.88786
O          9.08835        3.62845        1.93801
C         10.16675        2.85042        2.41686
N          9.59080        1.60475        2.98281
C          8.29770        1.44572        3.26431
N          7.83683        0.17208        3.61003
C          7.63220       -0.16429        4.98795
C          7.18838       -1.64362        5.13375
F          5.95926       -1.80111        4.58433
F          8.08070       -2.42042        4.43892
F          8.79120        0.00122        5.72663
F          6.70674        0.65111        5.55746
C         11.09239        3.51127        3.43730
C         11.91799        4.69581        2.85931
N         11.00286        5.80101        2.56368
N         12.88384        5.05975        3.89537
N         12.60978        4.21153        1.65476
H          6.01559        6.49913        4.63658
H          5.76910        7.03287        2.28239
H          4.32575        7.27584        3.31071
H          3.66062        6.02768        1.35401
H          3.56919        4.94934        2.78153
H          4.59893        3.11161        0.18004
H          3.76575        3.12219        1.78808
H          5.71281        1.34578        3.45904
H          5.52038        3.13460        3.58727
H          8.41500        4.25729        3.81929
H          7.27794        4.41452        2.43156
H         10.75202        2.59168        1.52106
H         10.22847        0.86137        3.25490
H          8.29481       -0.58800        3.10468
H          7.17754       -1.95144        6.19041
H         11.81305        2.75342        3.78144
H         10.53504        3.84907        4.32263
H         11.53209        6.64554        2.33994
H         10.40008        5.58362        1.76734
H         12.41371        5.50156        4.68874
H         13.55896        5.73395        3.52922
H         12.89525        4.99446        1.06629
H         13.45355        3.69422        1.91245
