60

C          0.66631       -0.39051        0.03787
O          2.04892       -0.06923        0.07060
C          2.50470        0.48908       -1.14885
C          3.98494        0.80127       -0.98303
O          4.45024        1.32849       -2.22205
C          5.82279        1.66831       -2.19836
C          6.17008        2.20176       -3.58085
O          7.56606        2.49295       -3.59003
C          8.02832        2.95334       -4.83942
C          9.55340        3.11059       -4.70893
C         10.23250        3.44706       -6.00491
C         10.61962        4.76951       -6.20834
C         11.24099        5.19724       -7.39095
C         11.65019        6.55838       -7.62056
C         11.45178        7.56719       -6.64606
C         11.28645        8.42742       -5.80857
C         12.25311        6.88371       -8.82386
N         12.45300        5.91554       -9.76817
C         12.09631        4.63091       -9.60819
C         11.47925        4.22249       -8.42079
C         11.09244        2.87713       -8.20530
C         10.48159        2.46482       -7.03433
C         10.09248        1.00021       -6.91287
C         10.54042        0.24968       -5.66903
C          9.56353       -0.33651       -4.85026
C          9.90847       -1.04002       -3.69726
C         11.25471       -1.16851       -3.35247
C         12.23472       -0.60699       -4.17153
C         11.90643        0.10230       -5.33641
C         13.01409        0.66609       -6.19365
H          0.41321       -0.81838        1.01513
H          0.44108       -1.13209       -0.75124
H          0.04564        0.50795       -0.13606
H          1.94989        1.41581       -1.39546
H          2.36385       -0.21905       -1.98970
H          4.53772       -0.11979       -0.71713
H          4.13088        1.53257       -0.16563
H          6.45263        0.78567       -1.97000
H          6.03355        2.43753       -1.43005
H          5.57641        3.10866       -3.80081
H          5.92695        1.44111       -4.34733
H          7.56356        3.92314       -5.10939
H          7.76616        2.23409       -5.64085
H          9.94427        2.16966       -4.30045
H          9.75388        3.90040       -3.97290
H         10.43608        5.50197       -5.42118
H         11.14392        9.19470       -5.07390
H         12.58762        7.88740       -9.07184
H         12.90036        6.18980      -10.64181
H         12.31007        3.95342      -10.43362
H         11.29571        2.14395       -8.98850
H         10.46980        0.48564       -7.81133
H          8.99450        0.93174       -6.97464
H          8.51011       -0.22847       -5.11784
H          9.13141       -1.48271       -3.07402
H         11.54388       -1.71311       -2.45325
H         13.28816       -0.72658       -3.91044
H         13.98601        0.27055       -5.87540
H         13.07159        1.76380       -6.12922
H         12.88487        0.40941       -7.25630
