69

C          1.26753       -0.47082       -0.50265
C          2.62124       -0.91581        0.02007
O          3.54765        0.21102        0.13610
P          4.61534        0.51328       -1.03437
O          5.32548       -0.68687       -1.55239
O          3.87281        1.41019       -2.13055
C          3.53843        0.90628       -3.46417
C          3.78086        2.00799       -4.47331
C          5.68542        1.71487       -0.18640
C          6.58247        0.98072        0.81955
C          7.67847        1.85621        1.44456
C          8.74906        1.12691        2.28554
C          9.52981        0.02551        1.52396
C          8.82281       -1.32454        1.79735
N          7.82837       -0.98979        2.92139
C          8.23933        0.36564        3.53020
C          7.13363        0.94714        4.35295
C          7.23697        1.13423        5.67180
C          9.72607       -2.46525        2.26188
C         10.67876       -2.91517        1.14750
C         11.65172       -4.03410        1.54567
C         13.09375       -3.61101        2.03147
C         13.29785       -2.72630        3.32447
C         12.87214       -3.21776        4.76407
C         13.46275       -4.53836        5.40168
C         15.02370       -4.66039        5.57356
F         15.52022       -3.57078        6.18557
F         15.27790       -5.74087        6.32648
F         15.62730       -4.81057        4.38350
F         12.91820       -4.59889        6.64558
F         13.02568       -5.60169        4.68613
F         13.16283       -2.18646        5.59687
F         11.51234       -3.37700        4.76668
F         14.61040       -2.40995        3.37747
F         12.59635       -1.55718        3.12374
F         13.83503       -4.73258        2.17281
F         13.62840       -2.86364        1.01881
F         11.09859       -4.86311        2.48629
F         11.89305       -4.79672        0.43432
H          0.57292       -1.32252       -0.49152
H          1.33113       -0.10255       -1.53438
H          0.84529        0.32509        0.12397
H          3.08036       -1.68734       -0.61568
H          2.53702       -1.31574        1.03991
H          2.47790        0.61262       -3.44079
H          4.14848        0.01464       -3.66601
H          3.20314        2.90734       -4.22208
H          3.46820        1.66824       -5.47051
H          4.84486        2.27530       -4.52123
H          5.07310        2.49508        0.28748
H          6.29190        2.19419       -0.96945
H          7.02902        0.12909        0.28081
H          5.91933        0.56169        1.59959
H          7.22360        2.65197        2.05512
H          8.21570        2.37665        0.63590
H          9.45422        1.88952        2.64442
H         10.56198       -0.02316        1.89761
H          9.58010        0.23131        0.44789
H          8.21057       -1.64043        0.94162
H          7.79720       -1.72506        3.63823
H          6.88026       -0.90025        2.52967
H          9.09598        0.12834        4.17909
H          6.22178        1.24897        3.82962
H          8.13824        0.85976        6.22499
H          6.42771        1.58463        6.24585
H          9.10904       -3.32625        2.56267
H         10.28631       -2.13774        3.14798
H         11.26645       -2.07798        0.74754
H         10.09770       -3.32473        0.30791
