41

Br         1.02206       -1.45681       -1.84204
C          2.77838       -0.82444       -1.25983
C          3.46695       -0.06307       -2.38661
C          4.86382        0.39187       -1.94441
N          5.56519        1.11480       -3.03415
C          5.85245        2.42286       -2.94689
C          6.49267        3.04794       -4.01208
C          6.80616        2.33340       -5.16270
C          6.48776        0.93018       -5.12211
N          5.87690        0.35584       -4.07219
C          6.80242        0.01454       -6.19356
N          7.45098        0.25782       -7.31046
N          7.51169       -0.90237       -8.01807
C          6.88213       -1.81449       -7.28547
O          6.40804       -1.30177       -6.10915
S          6.66214       -3.45398       -7.73817
C          5.63487       -4.11383       -6.36531
C          5.30974       -5.57074       -6.68708
C          7.49691        3.02178       -6.30667
C          6.64870        3.27192       -7.57767
C          5.43215        4.16014       -7.42211
Br         3.94100        3.18389       -6.54615
Br         7.83258        4.20231       -8.85908
H          3.33574       -1.71975       -0.96089
H          2.59551       -0.19938       -0.37803
H          2.86375        0.81079       -2.67516
H          3.56438       -0.70656       -3.27227
H          5.49882       -0.46646       -1.68646
H          4.82178        1.07211       -1.08434
H          5.55994        2.93264       -2.03125
H          6.72288        4.11006       -3.93987
H          4.72733       -3.50061       -6.29669
H          6.20617       -4.01882       -5.43348
H          4.75529       -5.66437       -7.63025
H          4.68207       -5.98368       -5.88667
H          6.21686       -6.18563       -6.75397
H          8.35396        2.40993       -6.62172
H          7.87615        3.98886       -5.94809
H          6.40243        2.32981       -8.07551
H          5.02583        4.45140       -8.39345
H          5.61752        5.05009       -6.81114
