52

C          0.64800       -0.53528        0.59889
C          1.96147       -0.05271       -0.02095
C          2.83214       -1.19775       -0.55350
C          4.13322       -0.70859       -1.20407
C          4.98556       -1.86245       -1.69321
O          6.18350       -1.29890       -2.33077
C          7.09043       -2.16776       -2.76896
O          6.99051       -3.38833       -2.68608
C          8.31124       -1.48793       -3.34758
C          9.05218       -2.38637       -4.35666
C          9.32043       -3.76551       -3.81235
N          8.81620       -4.67382       -4.60217
C          7.95104       -4.16218       -5.66732
C          8.35553       -2.67573       -5.73554
N          7.20902       -1.80823       -6.01306
N          7.71324       -0.48068       -6.15397
N          6.45491       -2.19152       -7.16271
C         10.10384       -4.12830       -2.60822
C         11.63494       -3.70861       -2.66229
N         12.14232       -4.15394       -3.96114
N         11.74301       -2.25932       -2.52095
N         12.37921       -4.27420       -1.54871
H          0.05560        0.30566        0.98344
H          0.82926       -1.22396        1.43763
H          0.02853       -1.06735       -0.13849
H          2.53607        0.51999        0.72610
H          1.74666        0.65126       -0.84245
H          2.25199       -1.78635       -1.28536
H          3.06804       -1.88912        0.27411
H          4.71328       -0.11074       -0.48322
H          3.90137       -0.04519       -2.05244
H          4.46553       -2.47912       -2.44104
H          5.31127       -2.52054       -0.87472
H          8.99677       -1.25367       -2.51658
H          8.05397       -0.53977       -3.83022
H         10.01788       -1.90195       -4.55064
H          8.84961       -5.66647       -4.37363
H          6.90268       -4.28724       -5.35525
H          8.12492       -4.71501       -6.59767
H          9.12705       -2.56083       -6.52777
H          6.90001        0.13829       -6.13513
H          8.13969       -0.36523       -7.08606
H          5.70919       -2.83316       -6.89622
H          7.03172       -2.60873       -7.90545
H         10.03097       -5.21341       -2.43971
H          9.66947       -3.62488       -1.73557
H         13.14836       -3.97058       -4.00331
H         12.02928       -5.16362       -4.08604
H         11.76757       -1.81673       -3.43955
H         12.63357       -2.04555       -2.06811
H         12.36802       -5.29327       -1.54669
H         12.04181       -3.94283       -0.64304
