37

C          1.68043        0.01022       -0.00232
C          2.85075       -0.84598       -0.44054
O          3.32153       -1.70143        0.67738
C          4.22309       -1.18328        1.48873
O          4.74909       -0.08584        1.45379
C          4.58464       -2.18345        2.55679
N          4.15080       -3.44824        2.66685
N          4.72845       -3.98121        3.72687
N          5.50893       -3.07185        4.27467
N          5.44121       -1.91426        3.57277
C          6.26875       -0.73219        3.87777
C          7.60270       -0.75343        3.08810
C          8.54639        0.24290        3.65335
C          8.94923        1.38333        3.07396
F          8.53348        1.76837        1.87696
F          9.79793        2.22909        3.61266
F          9.01778       -0.05746        4.89424
C          6.31099       -3.28545        5.49832
C          6.18291       -4.73048        6.01037
C          6.94885       -4.86865        7.28096
C          8.05508       -5.60139        7.46622
F          8.62850       -6.30089        6.49418
F          8.68624       -5.72015        8.61318
F          6.44452       -4.17574        8.33557
H          1.30711        0.56415       -0.87473
H          1.97598        0.74359        0.75848
H          0.85944       -0.60660        0.38395
H          3.70409       -0.24950       -0.78629
H          2.57156       -1.58102       -1.20301
H          6.44152       -0.72650        4.96049
H          5.67041        0.14080        3.59826
H          7.40367       -0.53141        2.03252
H          8.06007       -1.75542        3.14519
H          5.94809       -2.57354        6.25506
H          7.35686       -3.04538        5.25918
H          6.56619       -5.44002        5.26636
H          5.12508       -4.97543        6.19012
