56

C          4.72378        3.25250       -4.21363
C          4.26703        3.87738       -2.91375
O          4.86087        3.15397       -1.80359
C          4.36313        3.57721       -0.53065
C          4.95079        2.65921        0.54354
C          6.44959        2.70146        0.66426
N          7.16765        2.81693       -0.48776
C          8.52544        2.84939       -0.53997
C          9.18209        2.97644       -1.87851
C          9.20454        1.63885       -2.65627
O          9.98829        1.76806       -3.85080
C          9.36386        2.38742       -4.91037
O          8.23757        2.83559       -4.82395
C         10.24239        2.39736       -6.13741
C         10.07001        3.66071       -6.99197
C         10.60882        4.92251       -6.31409
C          9.22350        2.73902        0.65944
C          8.54815        2.62009        1.88391
C          7.14206        2.60637        1.86339
C          9.29558        2.51439        3.18830
C          9.04147        1.18675        3.93640
C          9.65537       -0.02409        3.22622
S          8.99596       -1.54470        3.93828
O          9.44855       -1.67634        5.30568
O          7.59829       -1.60855        3.58758
O          9.76483       -2.65516        3.03760
H          4.26926        3.79416       -5.05401
H          4.40602        2.20350       -4.27649
H          5.81383        3.30092       -4.33348
H          3.17019        3.82024       -2.80585
H          4.56096        4.94009       -2.84591
H          3.26273        3.50002       -0.50965
H          4.63153        4.63438       -0.34170
H          4.65214        1.62084        0.31721
H          4.50949        2.90756        1.51775
H          6.58196        2.92843       -1.34753
H         10.21590        3.31756       -1.73673
H          8.65646        3.72274       -2.49143
H          8.18291        1.32127       -2.91190
H          9.70101        0.85440       -2.07107
H          9.95526        1.50455       -6.71949
H         11.28820        2.24741       -5.83488
H          9.00471        3.78502       -7.23415
H         10.59337        3.49790       -7.94506
H         10.07594        5.13464       -5.37515
H         10.48852        5.79999       -6.96249
H         11.67953        4.82512       -6.08182
H         10.31310        2.76566        0.63239
H          6.57330        2.52496        2.78985
H          8.96763        3.33938        3.84088
H         10.37170        2.65660        3.01370
H          7.95865        1.03111        4.05414
H          9.45932        1.26662        4.94861
H         10.74825       -0.05930        3.32920
H          9.39141       -0.07189        2.16011
H         10.38995       -3.12454        3.62414
