54

C          1.15296        0.42225       -0.30717
C          1.98865       -0.05901        0.62255
C          3.04578        0.73384        1.35206
C          4.54738        0.41652        1.03750
C          4.79680       -1.04341        0.64757
N          4.40326       -1.30990       -0.78765
C          5.09897       -0.42203       -1.83168
C          4.70434        1.02515       -1.45002
C          5.16670        1.35596       -0.02103
C          5.04441        2.10876       -2.49003
C          4.08441        3.30547       -2.43932
C          4.46890        4.37498       -3.46768
C          3.55525        5.60116       -3.41056
S          4.07859        6.81795       -4.63503
O          5.34610        7.39201       -4.22904
O          3.89343        6.24383       -5.94404
O          2.93227        7.95460       -4.44216
C          6.57857       -0.89187       -1.95107
C          6.64363       -2.29062       -2.58515
O          5.87629       -3.23035       -1.79161
C          7.48071        0.07697       -2.74963
C          8.94256       -0.37002       -2.87555
H          0.37461       -0.19711       -0.75371
H          1.19347        1.46617       -0.62890
H          1.85612       -1.10133        0.94142
H          2.89276        0.56211        2.42934
H          2.87815        1.80800        1.18433
H          5.10147        0.57174        1.97525
H          4.22448       -1.74974        1.26374
H          5.85561       -1.30957        0.74248
H          3.38430       -1.15853       -0.86760
H          4.64552       -2.29632       -1.04258
H          4.59221       -0.67226       -2.77928
H          3.60011        0.98889       -1.43345
H          4.89710        2.39172        0.22753
H          6.26690        1.30773        0.03741
H          5.00956        1.67571       -3.50321
H          6.07141        2.47571       -2.34973
H          4.08446        3.75074       -1.43015
H          3.05325        2.95879       -2.62632
H          4.43290        3.94645       -4.48117
H          5.50914        4.69335       -3.29572
H          3.59111        6.10595       -2.43505
H          2.51077        5.35867       -3.65269
H          3.37023        8.73918       -4.05969
H          7.01648       -0.96708       -0.94108
H          7.68733       -2.62863       -2.62708
H          6.24503       -2.25394       -3.61481
H          5.93203       -4.11328       -2.18934
H          7.46690        1.04982       -2.24481
H          7.05582        0.24386       -3.75255
H          9.37419       -0.62425       -1.89610
H          9.54389        0.44532       -3.29671
H          9.07252       -1.23508       -3.53856
