53

C          1.50671       -1.31318        5.07870
C          2.22841        0.00019        4.76757
C          3.52272       -0.21124        3.96937
C          4.23549        1.09391        3.67147
O          5.43182        0.79286        2.90728
C          6.23964        1.90939        2.65515
C          7.01562        2.33329        3.88685
N          7.48566        1.48302        4.78270
C          7.88520        2.09922        6.09430
C          8.32326        3.51898        5.69939
S          7.24930        3.97578        4.27803
C          6.72615        2.03879        7.10093
C          7.13867        2.47138        8.51432
C          5.98007        2.33450        9.50643
C          6.34297        2.76281       10.93139
C          5.15136        2.69782       11.89531
N          4.08120        3.61191       11.47037
C          7.48023        0.01701        4.63741
O          7.09558       -0.69157        5.53021
O          8.02104       -0.29516        3.47357
C          8.01917       -1.73745        3.12566
C          9.28694       -2.40761        3.61104
H          0.58635       -1.13353        5.64906
H          2.14033       -1.98753        5.67292
H          1.22817       -1.84442        4.15730
H          2.45970        0.52587        5.70939
H          1.55492        0.66608        4.20331
H          3.30009       -0.71942        3.01758
H          4.20676       -0.86842        4.53066
H          4.51191        1.60884        4.61187
H          3.60155        1.78059        3.08161
H          5.66608        2.78197        2.29011
H          6.96425        1.63569        1.87095
H          8.74762        1.53269        6.47434
H          9.36516        3.57682        5.35959
H          8.15961        4.24268        6.50536
H          6.36064        1.00355        7.12933
H          5.89224        2.66468        6.74036
H          7.49145        3.51722        8.51554
H          7.99348        1.85799        8.84760
H          5.63726        1.28542        9.51811
H          5.12050        2.93486        9.16898
H          6.73832        3.79451       10.91909
H          7.15370        2.12883       11.32601
H          5.51573        2.88423       12.92325
H          4.73755        1.67677       11.89085
H          4.32900        4.57762       11.69182
H          3.21817        3.41533       11.97631
H          7.94191       -1.72505        2.03260
H          7.11262       -2.17944        3.55666
H         10.17892       -1.92058        3.19611
H          9.28489       -3.45270        3.27198
H          9.34918       -2.41093        4.70650
