74

C          0.74340        1.69076        2.83316
C          2.26193        1.59691        2.99671
C          2.75318        0.17168        3.27063
C          4.27166        0.07323        3.44311
C          4.77074       -1.34795        3.72300
C          6.28797       -1.42239        3.91727
C          6.80737       -2.83455        4.20948
C          8.32455       -2.85831        4.43462
C          8.85273       -4.24790        4.73963
O         10.28410       -4.14897        4.96343
C         10.86392       -5.37777        5.27093
N         12.33502       -5.18416        5.40773
C         13.10196       -5.91358        4.52525
C         14.45980       -5.81800        4.50702
C         15.13010       -4.94702        5.40123
C         14.31889       -4.21062        6.34614
C         12.89147       -4.34928        6.32847
C         12.01543       -3.50095        7.22479
C         10.92930       -4.12182        8.14154
C         11.32112       -5.29649        9.03798
C         12.32840       -5.00066       10.19610
Br        11.72752       -3.57211       11.38759
F         12.56569       -6.11199       10.90930
F         13.51511       -4.61896        9.63619
Br         9.69159       -6.06773        9.80995
F         11.93082       -6.28280        8.27062
C         14.98552       -3.35275        7.26756
C         16.35744       -3.24275        7.24642
C         17.13577       -3.95554        6.30938
C         16.55260       -4.79654        5.37399
C         17.37062       -5.54544        4.33987
C         18.82980       -5.13248        4.18332
O         19.55492       -5.54467        5.33733
C         20.94774       -5.32635        5.22042
C         21.60737       -5.77473        6.52044
F         21.14497       -5.06896        7.58427
F         21.39068       -7.08449        6.77441
F         22.94514       -5.57628        6.43837
H          0.42194        2.72308        2.63900
H          0.22364        1.34500        3.73905
H          0.39417        1.06999        1.99477
H          2.58606        2.25530        3.82036
H          2.75623        1.98183        2.08882
H          2.43431       -0.48851        2.44494
H          2.25647       -0.21620        4.17747
H          4.58687        0.73701        4.26747
H          4.76765        0.46106        2.53605
H          4.47305       -2.01166        2.89269
H          4.26716       -1.74157        4.62319
H          6.58001       -0.75230        4.74479
H          6.79165       -1.03004        3.01686
H          6.54404       -3.50396        3.37291
H          6.29382       -3.23660        5.09975
H          8.58265       -2.18876        5.27127
H          8.84266       -2.46905        3.54400
H          8.66883       -4.94211        3.89910
H          8.37109       -4.67068        5.64168
H         10.72032       -6.11423        4.46188
H         10.48025       -5.82147        6.20612
H         12.54974       -6.55830        3.84664
H         15.00752       -6.42159        3.78721
H         11.47466       -2.80790        6.56173
H         12.66879       -2.88398        7.84212
H         10.06167       -4.44448        7.55733
H         10.56251       -3.31624        8.79153
H         14.43489       -2.78475        8.01102
H         16.85501       -2.59491        7.96843
H         18.22051       -3.85750        6.33938
H         16.90038       -5.42433        3.35113
H         17.34638       -6.62573        4.56311
H         18.92044       -4.03750        4.03754
H         19.24271       -5.62093        3.28144
H         21.19175       -4.25896        5.06898
H         21.38626       -5.91272        4.39323
