100

C         -0.14738        8.23176       -1.97155
C         -0.67862        7.81034       -0.59777
C         -1.83319        6.79851       -0.63431
C         -1.50010        5.40186       -1.17971
N         -0.51511        4.66620       -0.35380
C         -0.89511        4.01458        0.75654
S         -2.51756        3.82860        1.21046
S          0.47837        3.34763        1.68495
C         -0.28426        2.25416        2.91679
C         -0.24251        2.79397        4.35246
C         -1.08587        4.02904        4.65099
N         -2.56676        3.85848        4.39519
C         -3.16979        2.58065        4.90899
C         -4.62622        2.51081        4.46709
O         -5.35812        3.63675        4.91941
C         -4.83355        4.85945        4.38994
C         -3.37488        5.07612        4.86362
C         -3.23134        5.30656        6.38099
C         -2.77534        6.72923        6.73934
P         -2.60429        6.90662        8.54931
O         -3.54301        6.06908        9.32581
O         -1.03092        6.57603        8.71191
C         -0.46537        6.48154       10.05912
C          1.01703        6.77975        9.97179
O         -2.78752        8.45721        8.90759
C         -1.96668        9.51953        8.33837
C         -2.32432       10.80467        9.05550
C         -5.81712        5.93513        4.85197
C         -5.52828        7.37057        4.42075
O         -5.83682        7.54384        3.01250
C         -4.78732        7.58527        2.15684
O         -3.61935        7.46251        2.48912
C         -5.25385        7.74567        0.73258
S         -5.66821        6.10419        0.02530
C         -6.41233        8.33721        5.20789
O         -6.31796        9.68904        4.72109
C         -5.15497       10.34645        4.95301
O         -4.23521        9.90392        5.61716
C         -5.14714       11.67728        4.23782
S         -4.78330       11.44079        2.45545
C          0.88997        4.67427       -0.82914
C          1.30663        3.41273       -1.60171
C          0.50756        3.12574       -2.87805
C          1.01438        1.88108       -3.61190
H          0.64389        8.98669       -1.87527
H         -0.94658        8.66564       -2.59001
H          0.27909        7.39117       -2.53969
H         -1.03886        8.70299       -0.06356
H          0.14264        7.41719        0.02531
H         -2.64589        7.18853       -1.27007
H         -2.25190        6.69273        0.37684
H         -1.07639        5.45942       -2.18932
H         -2.41188        4.79427       -1.23825
H          0.29496        1.32290        2.85861
H         -1.30280        2.04490        2.55300
H          0.79233        3.06697        4.60898
H         -0.50038        1.97566        5.04283
H         -0.78418        4.87532        4.01674
H         -0.95097        4.32053        5.69837
H         -2.64025        3.83526        3.32743
H         -3.07852        2.56810        6.00312
H         -2.60919        1.73672        4.49247
H         -5.10060        1.62304        4.90427
H         -4.68365        2.42698        3.36382
H         -4.83080        4.80198        3.28235
H         -2.95503        5.91363        4.28625
H         -2.52309        4.58927        6.81944
H         -4.17810        5.08210        6.88822
H         -3.50392        7.48680        6.41744
H         -1.81865        6.98211        6.25920
H         -0.66093        5.46718       10.43526
H         -0.98084        7.19422       10.72063
H          1.52176        6.08080        9.29145
H          1.47548        6.67907       10.96514
H          1.19663        7.80296        9.61566
H         -2.18537        9.59967        7.26250
H         -0.90446        9.26003        8.47013
H         -3.38967       11.03393        8.92366
H         -1.73787       11.63877        8.64596
H         -2.11570       10.72788       10.13053
H         -5.88002        5.89762        5.95033
H         -6.80787        5.64180        4.47543
H         -4.47520        7.64239        4.55715
H         -4.47474        8.24071        0.14404
H         -6.18167        8.32741        0.68869
H         -4.44914        5.53943        0.22901
H         -6.13096        8.29842        6.27070
H         -7.47361        8.08147        5.09843
H         -4.40864       12.34300        4.69478
H         -6.14008       12.14177        4.26691
H         -3.49938       11.04389        2.62632
H          1.55441        4.83607        0.03272
H          0.99303        5.55998       -1.46719
H          1.25903        2.54015       -0.93224
H          2.37256        3.54254       -1.85292
H          0.55867        3.99764       -3.55230
H         -0.55702        2.98790       -2.62780
H          2.06795        1.99055       -3.90676
H          0.43207        1.69151       -4.52292
H          0.93862        0.98606       -2.97712
