38

C          0.57221        1.00577       -1.56366
C          2.05849        1.14573       -1.90151
C          2.94142        1.13201       -0.64643
C          4.45793        1.09179       -0.91633
P          5.08171        2.49811       -1.88125
C          4.49202        4.05668       -1.19212
C          4.73937        4.40670        0.14280
C          4.25025        5.63334        0.60021
N          3.55801        6.48721       -0.16768
C          3.32349        6.13984       -1.43931
C          3.76504        4.93778       -2.00278
C          6.90893        2.57266       -1.92877
C          7.71762        1.32532       -2.33969
C          7.82264        1.04398       -3.84345
C          6.53665        0.52510       -4.46148
O          5.48310        0.46148       -3.85275
O          6.57893        0.13241       -5.74847
H         -0.04325        1.02935       -2.47185
H          0.22997        1.81923       -0.90783
H          0.36970        0.05518       -1.05018
H          2.20915        2.08735       -2.45900
H          2.36955        0.33570       -2.58105
H          2.71083        0.23685       -0.04789
H          2.69917        1.99422       -0.00505
H          4.74716        0.19937       -1.49022
H          5.03299        1.09000        0.02389
H          4.55356        2.47797       -3.18365
H          5.28970        3.75354        0.82232
H          4.42189        5.94400        1.63372
H          2.75413        6.85324       -2.04074
H          3.53875        4.70517       -3.04494
H          7.18043        2.86325       -0.90121
H          7.15188        3.44245       -2.56041
H          7.33878        0.43207       -1.82306
H          8.73693        1.48492       -1.96095
H          8.61692        0.29986       -4.01643
H          8.13701        1.94684       -4.39545
H          7.47887        0.20435       -6.11567
