84

C          5.41486        1.81196       -5.72331
C          5.91528        1.32285       -4.36162
C          6.14800        2.46104       -3.36156
C          6.67271        1.98874       -2.00015
C          6.93844        3.15220       -1.03543
C          7.50589        2.70028        0.29879
O          7.78212        3.88060        1.08941
C          8.41203        3.63937        2.32613
C          8.82059        4.97702        2.89448
C          9.45343        5.18511        4.10802
C          9.80782        6.48802        4.49668
C         10.46626        6.74710        5.82184
C          9.44085        7.20051        6.87496
O          8.47141        6.17953        6.99002
C          7.54509        6.39690        8.05815
C          6.68255        5.16507        8.22140
O          7.47989        4.11476        8.73599
C          6.75151        2.91007        8.94268
C          7.71746        1.88578        9.52171
O          7.00690        0.67092        9.67676
C          7.79015       -0.34329       10.28950
C          9.49271        7.55290        3.63574
C          8.83898        7.33302        2.43058
N          8.53719        6.04692        2.11473
C          8.38791        8.41644        1.50036
C          7.08270        9.07778        2.00537
C          6.62116       10.23403        1.10958
P          5.35572       11.24397        1.95336
O          5.74136       11.64371        3.32338
O          5.07867       12.52340        1.02727
C          4.51042       12.43956       -0.31219
C          3.85111       13.76628       -0.62988
O          4.06415       10.28655        1.81702
C          2.85604       10.63326        2.56775
C          1.82760        9.54885        2.32964
H          5.25564        0.97486       -6.41594
H          6.13714        2.49673       -6.19232
H          4.46052        2.35123       -5.63020
H          6.85413        0.75936       -4.49440
H          5.19087        0.60778       -3.93688
H          5.20640        3.01943       -3.21756
H          6.86384        3.18218       -3.79449
H          7.60294        1.41391       -2.14870
H          5.94872        1.28866       -1.54951
H          6.00616        3.71245       -0.85736
H          7.65118        3.85563       -1.49729
H          8.44630        2.13578        0.16257
H          6.79400        2.05756        0.84673
H          9.31379        3.00629        2.20835
H          7.74147        3.12533        3.04279
H          9.66904        4.33764        4.75793
H         11.22846        7.53308        5.71777
H         10.96247        5.83627        6.18254
H          8.97686        8.16211        6.57399
H          9.96255        7.36715        7.83596
H          6.90532        7.27296        7.83981
H          8.09404        6.59180        8.99773
H          6.23975        4.88202        7.24471
H          5.84770        5.40443        8.90978
H          6.33137        2.53449        7.98921
H          5.90871        3.07287        9.64077
H          8.10859        2.24624       10.49327
H          8.58335        1.75872        8.84073
H          7.15412       -1.23199       10.37470
H          8.12686       -0.04067       11.29786
H          8.67965       -0.59202        9.68111
H          9.75045        8.57644        3.90929
H          8.07011        5.81008        1.22931
H          8.24807        8.00935        0.48655
H          9.17983        9.17709        1.43259
H          7.24536        9.46121        3.02399
H          6.28821        8.31920        2.07828
H          6.24449        9.87957        0.13844
H          7.45179       10.92991        0.91111
H          3.78837       11.60935       -0.34926
H          5.32799       12.22313       -1.01895
H          3.03281       13.97576        0.07123
H          3.43788       13.74279       -1.64773
H          4.57671       14.58753       -0.57062
H          2.49463       11.61349        2.21887
H          3.12373       10.72458        3.63024
H          1.57395        9.46779        1.26432
H          0.90831        9.78411        2.88322
H          2.19546        8.57408        2.67682
