44

C          1.28738        0.17631       -0.68124
O          2.66951        0.29005       -0.36525
C          3.28566        1.38772       -1.01051
C          4.75493        1.36866       -0.61299
O          5.39424        2.46875       -1.26372
C          6.77567        2.54183       -1.00344
C          7.30200        3.73501       -1.78990
O          8.72457        3.80069       -1.58365
C          9.34698        4.91071       -2.21076
C         10.82455        4.85436       -1.81377
P         10.96028        4.50379       -0.03051
C         10.92543        2.71402        0.31187
C         11.16630        2.20211        1.75567
C         10.11521        2.72056        2.75902
F         10.17249        4.09066        2.83367
F          8.85645        2.39199        2.36443
F         10.31517        2.23532        3.98537
O         11.22839        0.79882        1.76062
C         12.47997        5.28055        0.65215
C         12.44001        6.70547        0.38837
C         12.35546        7.88758        0.15061
H          0.90623       -0.69461       -0.13613
H          1.13288        0.02226       -1.76456
H          0.72566        1.07469       -0.36740
H          2.82326        2.34654       -0.70328
H          3.19439        1.30942       -2.11186
H          5.21709        0.41334       -0.92415
H          4.85242        1.45685        0.48520
H          7.29729        1.61840       -1.32921
H          6.97635        2.67992        0.07942
H          6.82361        4.66679       -1.44145
H          7.08221        3.60817       -2.86321
H          8.89297        5.86008       -1.86773
H          9.25015        4.86655       -3.30998
H         11.33439        5.80995       -2.00437
H         11.36186        4.05717       -2.34843
H          9.88648        5.14919        0.61348
H         11.70668        2.26993       -0.32420
H          9.95430        2.37331       -0.07730
H         12.14413        2.54118        2.13166
H         10.34868        0.42363        1.57700
H         13.35566        4.79357        0.19176
H         12.50480        5.06900        1.73326
H         12.31343        8.94266       -0.03361
