85

C          2.00451       -2.78267        2.33614
C          3.42407       -2.22029        2.23762
C          3.53885       -0.77295        2.73187
C          4.96181       -0.21560        2.61605
C          5.08457        1.20594        3.13713
O          6.44535        1.63419        2.96365
C          6.70522        2.90192        3.49954
C          8.17487        3.21948        3.21184
O          9.08320        2.21838        3.71544
C          9.21562        2.40787        5.08631
N          9.23053        3.96800        5.21407
C          8.71716        4.51126        3.87132
C          7.80262        5.70443        4.09940
C          7.53334        6.52753        2.83784
C          6.65506        7.77447        3.07228
C          7.26581        8.84096        4.01806
C          7.16252        8.60176        5.55283
C          8.43128        8.16088        6.23035
C          8.60824        7.19292        7.15286
C          7.50349        6.31125        7.67604
C          9.96378        6.94356        7.76363
C          6.32625        8.41228        1.71365
C         10.46694        1.77303        5.64473
C         10.37741        0.23965        5.62448
C         11.53942       -0.38356        6.41097
S         11.19953       -2.05696        7.00968
C         10.17893       -1.72673        8.45036
S          9.76210       -0.17802        8.93628
N          9.79892       -2.85153        9.09882
C         10.13529       -4.22116        8.69160
C          8.84568       -5.00838        8.43927
O          8.00111       -5.00143        9.58361
C          7.66171       -3.66792        9.95972
C          8.90356       -2.82824       10.26202
H          1.96171       -3.82228        1.98505
H          1.29879       -2.19801        1.72789
H          1.63826       -2.76801        3.37345
H          3.77190       -2.27366        1.19243
H          4.11486       -2.85463        2.81829
H          3.20232       -0.72090        3.78233
H          2.84317       -0.13627        2.15810
H          5.28895       -0.23400        1.56407
H          5.66443       -0.85566        3.17402
H          4.81793        1.25702        4.21171
H          4.40816        1.89240        2.59184
H          6.47366        2.92997        4.58827
H          6.08040        3.68879        3.02848
H          8.32946        3.23445        2.12571
H          8.31809        2.09308        5.64928
H         10.18124        4.30405        5.40658
H          8.63278        4.28833        5.98867
H          9.61829        4.81849        3.32299
H          8.29173        6.35255        4.84059
H          6.85321        5.37342        4.55242
H          7.04783        5.89947        2.07251
H          8.49701        6.84854        2.40343
H          5.70362        7.43443        3.52303
H          6.74701        9.78426        3.79623
H          8.31890        9.01624        3.73736
H          6.32755        7.91829        5.76982
H          6.87178        9.55932        6.01729
H          9.31705        8.74697        5.95612
H          6.56713        6.39794        7.11302
H          7.27965        6.54799        8.72864
H          7.80481        5.24551        7.69006
H         10.73293        7.60252        7.34240
H         10.29168        5.89627        7.62436
H          9.94375        7.09791        8.85438
H          7.23503        8.79863        1.22703
H          5.63016        9.25330        1.83006
H          5.86446        7.68764        1.02853
H         10.57567        2.09156        6.69553
H         11.34161        2.13352        5.07722
H         10.36008       -0.13546        4.59207
H          9.43238       -0.05429        6.10273
H         11.78687        0.22107        7.29534
H         12.44279       -0.49680        5.79394
H         10.71311       -4.69298        9.50338
H         10.75826       -4.21628        7.78999
H          9.07864       -6.06041        8.22763
H          8.31725       -4.57706        7.56600
H          7.03160       -3.74898       10.85503
H          7.07512       -3.18333        9.15445
H          9.44468       -3.24618       11.12641
H          8.64021       -1.78559       10.47327
