45

C          6.63181       -7.98805        1.51883
C          6.39568       -6.52210        1.89809
C          7.68530       -5.71805        1.82288
O          7.48140       -4.33759        2.29122
C          7.09666       -3.44271        1.36104
O          6.94228       -3.64894        0.17927
C          6.82795       -2.06305        1.97982
N          7.57357       -1.77093        3.20449
C          8.91386       -1.88083        3.32103
N          9.72288       -1.55326        2.30654
C          9.51126       -0.47571        1.30829
C         10.81817        0.24215        1.07564
C         11.57112       -0.01943       -0.07622
C         12.79978        0.61658       -0.27256
C         13.28235        1.51332        0.68328
C         12.53530        1.77810        1.83593
C         11.30778        1.14539        2.03294
N          9.43546       -2.35531        4.47225
C         10.68345       -1.89516        5.10209
C         10.40416       -1.07346        6.32831
C         10.69121       -1.37833        7.59919
Br        11.53309       -2.98137        8.13232
Br         9.50925        0.58293        5.98366
H          5.69210       -8.55196        1.56262
H          7.34272       -8.47454        2.20186
H          7.02624       -8.08205        0.49747
H          5.98974       -6.45497        2.91935
H          5.65239       -6.07432        1.22171
H          8.08098       -5.67833        0.79927
H          8.45264       -6.11473        2.50052
H          5.75969       -2.00864        2.22946
H          7.00423       -1.31373        1.19954
H          7.05629       -1.81300        4.07676
H         10.67608       -1.90215        2.35766
H          8.75012        0.20582        1.71314
H          9.13312       -0.90789        0.36964
H         11.18988       -0.71350       -0.82844
H         13.37610        0.41611       -1.17574
H         14.23793        2.01452        0.52793
H         12.90590        2.48766        2.57634
H         10.72137        1.36236        2.92915
H          8.80298       -2.87880        5.07189
H         11.24314       -1.29532        4.37088
H         11.29622       -2.76500        5.37643
H         10.46461       -0.71765        8.43326
