35

N          1.79039       -1.55595       -1.14473
C          2.27919       -0.56619       -2.11663
C          3.51838        0.16333       -1.58346
C          4.61139       -0.76478       -1.03927
N          5.05560       -1.77108       -2.04099
C          5.88455       -1.37819       -3.06525
C          6.27213       -2.26951       -4.03068
C          5.83334       -3.61876       -3.99591
C          4.97448       -4.00401       -2.90789
C          4.60925       -3.03147       -1.96189
C          4.50696       -5.33678       -2.79040
C          4.87446       -6.28506       -3.72649
C          5.71546       -5.88363       -4.80461
C          6.20135       -4.59620       -4.96931
C          7.08467       -4.24735       -6.13591
C          4.41724       -7.71243       -3.63347
H          1.01943       -2.09151       -1.54522
H          1.40577       -1.08897       -0.32067
H          1.53180        0.19375       -2.40659
H          2.53759       -1.10790       -3.04095
H          3.23889        0.82721       -0.74933
H          3.92141        0.81909       -2.37002
H          4.24647       -1.32854       -0.17448
H          5.49904       -0.19555       -0.73361
H          6.20575       -0.33924       -3.04527
H          6.93264       -1.91704       -4.82103
H          3.92371       -3.24124       -1.14075
H          3.86176       -5.60413       -1.95163
H          5.99303       -6.64027       -5.54278
H          7.25213       -5.12388       -6.77145
H          8.06907       -3.88331       -5.80589
H          6.63666       -3.46229       -6.76309
H          3.76116       -7.87589       -2.77095
H          5.27885       -8.39058       -3.54333
H          3.87358       -8.00901       -4.54245
