98

C          0.41589        0.88739        2.89704
C          1.88250        0.46083        2.79671
C          2.29680        0.04478        1.38114
C          3.76316       -0.38388        1.26896
C          4.16084       -0.84759       -0.13603
C          5.62892       -1.27031       -0.24884
C          6.01204       -1.79008       -1.63806
C          7.48233       -2.20713       -1.74738
C          7.85416       -2.77855       -3.11939
C          9.33048       -3.17008       -3.22069
C          9.68924       -3.79073       -4.59396
C         11.14903       -4.14892       -4.68260
C         11.57220       -5.45758       -4.24923
C         10.59677       -6.49923       -3.76216
C         10.02283       -7.38359       -4.89232
C          9.14630       -8.51023       -4.33719
C          8.53331       -9.41580       -5.41058
C          7.77588      -10.60571       -4.81040
C          7.08316      -11.50050       -5.84308
C          6.39991      -12.71892       -5.21254
C          5.65537      -13.60734       -6.21363
C          4.99843      -14.83246       -5.56689
C          4.23832      -15.71340       -6.56117
C         12.91064       -5.79187       -4.29974
C         13.87401       -4.86401       -4.75372
C         13.46445       -3.54221       -5.16236
C         12.08570       -3.19462       -5.11577
C         11.67292       -1.80338       -5.53566
C         11.56910       -1.62203       -7.05825
O         11.49817       -0.23213       -7.29513
C         11.43451        0.11185       -8.67979
C         11.45755        1.63180       -8.76861
O         11.46677        1.97231      -10.14150
C         11.49744        3.37791      -10.35416
C         14.48797       -2.64738       -5.58829
C         15.80136       -3.03271       -5.61394
N         16.13798       -4.30381       -5.22096
C         15.23116       -5.19849       -4.80222
H          0.14695        1.16968        3.92410
H         -0.25845        0.07448        2.58888
H          0.20582        1.75206        2.24995
H          2.07121       -0.37691        3.48972
H          2.53132        1.28518        3.13831
H          2.10574        0.88041        0.68488
H          1.64805       -0.78246        1.04245
H          3.96084       -1.19800        1.98867
H          4.41369        0.45405        1.57636
H          3.95616       -0.04015       -0.86081
H          3.51491       -1.69190       -0.43536
H          5.84142       -2.05194        0.50174
H          6.27695       -0.41576        0.01444
H          5.79488       -1.01499       -2.39356
H          5.36892       -2.65023       -1.89441
H          7.70760       -2.95699       -0.96880
H          8.12627       -1.33816       -1.52538
H          7.61741       -2.04033       -3.90513
H          7.22553       -3.66051       -3.33251
H          9.58424       -3.88498       -2.42069
H          9.96477       -2.28624       -3.04144
H          9.41724       -3.08736       -5.39229
H          9.07120       -4.68368       -4.75452
H          9.76996       -6.03318       -3.20799
H         11.11814       -7.14884       -3.04283
H         10.85710       -7.80985       -5.47433
H          9.44560       -6.76410       -5.59916
H          8.33940       -8.07695       -3.72071
H          9.75242       -9.12470       -3.64832
H          9.32955       -9.78804       -6.07867
H          7.85271       -8.82404       -6.04733
H          7.02202      -10.23234       -4.09505
H          8.47873      -11.21451       -4.21465
H          7.82008      -11.84051       -6.59210
H          6.33741      -10.90678       -6.40020
H          5.69293      -12.37717       -4.43566
H          7.15723      -13.32369       -4.68299
H          6.35480      -13.94123       -7.00092
H          4.88383      -13.00993       -6.73124
H          4.31055      -14.49642       -4.77207
H          5.77343      -15.43140       -5.05870
H          3.43078      -15.15189       -7.05448
H          3.78210      -16.58041       -6.06406
H          4.90405      -16.09499       -7.34967
H         13.23553       -6.78329       -3.97758
H         12.40126       -1.06684       -5.16597
H         10.71894       -1.51970       -5.07901
H         10.67690       -2.14713       -7.45446
H         12.45024       -2.06109       -7.57109
H         10.51336       -0.28750       -9.14251
H         12.30080       -0.30841       -9.22524
H         12.35859        2.02008       -8.25270
H         10.57129        2.05520       -8.25626
H         11.48209        3.53718      -11.43853
H         12.41518        3.82963       -9.93464
H         10.62009        3.87479       -9.90171
H         14.24935       -1.63360       -5.90288
H         16.62098       -2.39202       -5.92896
H         17.11904       -4.57676       -5.24668
H         15.60557       -6.17846       -4.50833
