80

C          8.46653       -9.34075       -2.00052
C          8.17810       -8.86627       -0.57393
C          8.46245       -7.36921       -0.38500
C          8.16640       -6.89565        1.02518
O          8.49158       -5.48118        1.10519
C          8.26506       -4.92731        2.37255
P          8.89438       -3.21045        2.25295
C          8.08257       -2.34177        0.88142
C          8.56155       -0.89490        0.64718
C         10.05287       -0.74801        0.32085
C         10.44063        0.68686       -0.05939
C         11.92051        0.83263       -0.41959
C          8.74339       -2.32326        3.82964
C          9.36735       -3.02735        5.05242
C         10.88769       -3.22138        4.99001
C         11.45809       -3.81168        6.28588
C         12.98480       -3.94847        6.28113
C         13.53838       -4.60220        7.55261
C         15.06808       -4.69644        7.57999
C         15.61651       -5.41257        8.81975
C         17.14731       -5.47878        8.85803
C         17.70454       -6.20767       10.08611
C         19.23573       -6.24649       10.12229
C         19.77972       -6.97349       11.36060
N         21.23339       -7.00954       11.41953
C         22.03398       -7.96148       10.82551
C         23.35493       -7.59966       11.02089
C         23.35480       -6.37965       11.75296
C         22.03380       -6.03777       11.98074
H          8.25653      -10.41232       -2.11116
H          9.52001       -9.17864       -2.27091
H          7.84795       -8.80322       -2.73379
H          8.78540       -9.44809        0.13900
H          7.12551       -9.07564       -0.32134
H          7.85737       -6.78110       -1.09372
H          9.51894       -7.15737       -0.61606
H          8.77346       -7.44106        1.77108
H          7.09986       -7.02986        1.28225
H          8.81941       -5.44115        3.18352
H          7.19395       -4.89348        2.66066
H         10.26182       -3.35241        1.93603
H          7.00324       -2.37879        1.10067
H          8.25395       -2.97808       -0.00129
H          8.29725       -0.26702        1.51338
H          7.96487       -0.50402       -0.19155
H         10.31891       -1.43177       -0.50386
H         10.67091       -1.05911        1.18390
H         10.19086        1.36406        0.77446
H          9.81874        1.01144       -0.90995
H         12.57206        0.54213        0.41805
H         12.16309        1.87074       -0.68074
H         12.18664        0.20436       -1.28224
H          7.66486       -2.14642        3.97109
H          9.20648       -1.33721        3.66088
H          8.86525       -3.99257        5.22677
H          9.11788       -2.40636        5.92671
H         11.37141       -2.25108        4.78167
H         11.16207       -3.88483        4.14949
H         11.00072       -4.80014        6.46634
H         11.15144       -3.17766        7.13544
H         13.43886       -2.95027        6.15343
H         13.29973       -4.53877        5.40237
H         13.10802       -5.61384        7.65604
H         13.19219       -4.03623        8.43497
H         15.49639       -3.68021        7.52600
H         15.41921       -5.21980        6.67318
H         15.20419       -6.43620        8.86063
H         15.24983       -4.90383        9.72855
H         17.55651       -4.45391        8.82808
H         17.51452       -5.97599        7.94321
H         17.30864       -7.23848       10.10929
H         17.32720       -5.71954       11.00208
H         19.63963       -5.22113       10.10789
H         19.62347       -6.74430        9.21864
H         19.41255       -8.01114       11.38553
H         19.41565       -6.48631       12.27819
H         21.59642       -8.81963       10.32522
H         24.22245       -8.16029       10.68770
H         24.22208       -5.82195       12.09157
H         21.59584       -5.19305       12.50309
