94

C          0.59337       -0.75864        0.72404
C          2.12408       -0.75889        0.73802
C          2.71803        0.25380        1.72318
C          4.24931        0.29375        1.72038
C          4.83405        1.32907        2.68674
C          6.36143        1.42647        2.62705
C          6.94501        2.48851        3.56506
C          8.46126        2.64978        3.42027
C          9.05178        3.72709        4.33659
C         10.55812        3.93024        4.10547
C         11.11717        5.00430        5.02804
N         12.64075        5.12727        4.95908
C         13.17296        5.48656        3.59435
C         12.78331        6.89300        3.13301
O         12.06820        7.65071        3.75862
O         13.36084        7.11863        1.95495
C         13.09051        8.42176        1.30889
C         11.85744        8.34290        0.43265
C         13.18323        5.99284        6.09836
C         14.70355        6.03386        6.15940
C         15.18886        6.75358        7.42790
C         16.71566        6.87514        7.47733
C         17.23030        7.63204        8.70555
C         18.75467        7.78465        8.71337
C         19.29030        8.60706        9.88951
C         20.81492        8.75365        9.86885
C         21.37621        9.60129       11.01430
C         22.90277        9.72672       10.97267
C         23.47875       10.59788       12.09138
C         25.01117       10.67352       12.04137
N         25.58295       11.51402       13.08176
C         25.86630       11.10960       14.36871
C         26.28198       12.21578       15.08798
C         26.24172       13.33237       14.20702
C         25.80262       12.87078       12.97914
H          0.19675       -1.49281        0.00954
H          0.19747        0.22781        0.43989
H          0.18388       -1.00531        1.71486
H          2.50213       -0.54222       -0.27566
H          2.49230       -1.76851        0.98721
H          2.35808        0.02561        2.74197
H          2.32930        1.26007        1.48582
H          4.60436        0.51165        0.69747
H          4.64490       -0.70654        1.96969
H          4.51922        1.08931        3.71743
H          4.40026        2.31943        2.46194
H          6.66746        1.65283        1.59029
H          6.80434        0.44345        2.86441
H          6.69768        2.23465        4.61047
H          6.45682        3.45837        3.36513
H          8.69771        2.89767        2.37057
H          8.95692        1.68465        3.62365
H          8.87233        3.45846        5.39128
H          8.52765        4.68289        4.16793
H         10.71438        4.20074        3.04925
H         11.08405        2.97304        4.27435
H         10.90204        4.76464        6.07861
H         10.71935        6.00187        4.81043
H         13.00333        4.17915        5.13371
H         12.79445        4.74790        2.87786
H         14.26453        5.39271        3.61675
H         14.00224        8.60551        0.72984
H         12.99311        9.17546        2.09984
H         11.95549        7.55174       -0.32178
H         11.73417        9.29869       -0.09499
H         10.95074        8.16877        1.02591
H         12.76558        5.54609        7.01135
H         12.74343        6.98738        5.96275
H         15.11280        6.56030        5.28286
H         15.11619        5.00893        6.14310
H         14.82683        6.21542        8.32005
H         14.73869        7.75973        7.46968
H         17.06624        7.38840        6.56477
H         17.16497        5.86713        7.45063
H         16.90539        7.11249        9.62352
H         16.76248        8.63133        8.73972
H         19.07481        8.25763        7.76810
H         19.22233        6.78451        8.72279
H         18.97737        8.14028       10.83975
H         18.82501        9.60829        9.87633
H         21.12237        9.19845        8.90583
H         21.27665        7.75096        9.89739
H         21.07099        9.16417       11.98087
H         20.92446       10.60802       10.98166
H         23.20572       10.13928        9.99392
H         23.34946        8.71789       11.02468
H         23.17353       10.20492       13.07472
H         23.07042       11.61941       12.02554
H         25.34142       11.06776       11.06802
H         25.44466        9.66598       12.13873
H         25.75679       10.06949       14.65926
H         26.59572       12.21563       16.12692
H         26.51910       14.35590       14.43775
H         25.63828       13.38854       12.03933
