39

C          5.47792       -1.13940       -0.43133
C          4.60011       -0.80808        0.77911
C          3.07640       -0.83679        0.52697
C          2.62731       -2.25348        0.11372
C          1.13555       -2.39454       -0.25148
C          0.68641       -1.64439       -1.43802
N         -0.27618       -2.23684       -2.07956
C         -0.66894       -3.51769       -1.42256
C          0.54126       -3.82416       -0.50896
C          1.53045       -4.80420       -1.16545
C          0.97697       -6.22510       -1.30582
C         -0.91580       -1.59328       -3.29374
O         -0.44087       -0.56083       -3.67000
C         -2.06755       -2.34404       -3.87068
C          2.32252       -0.31947        1.76068
H          6.53731       -0.98364       -0.19108
H          5.24004       -0.49347       -1.29003
H          5.37898       -2.18450       -0.75782
H          4.85547        0.19963        1.14090
H          4.83462       -1.49313        1.61204
H          2.88117       -0.14424       -0.31481
H          2.82141       -2.94447        0.95052
H          3.23667       -2.60481       -0.73012
H          0.55707       -1.93118        0.58057
H          1.04489       -0.67693       -1.79982
H         -0.85497       -4.28595       -2.18209
H         -1.60302       -3.34154       -0.86716
H          0.18926       -4.25282        0.43929
H          2.44322       -4.84035       -0.55471
H          1.84391       -4.41815       -2.15162
H          0.70687       -6.64586       -0.32714
H          1.72972       -6.88513       -1.75447
H          0.08567       -6.27674       -1.94849
H         -2.83163       -2.54877       -3.10679
H         -1.73224       -3.31422       -4.26961
H         -2.50082       -1.75073       -4.68098
H          2.46027       -0.99315        2.62015
H          1.24069       -0.20451        1.59410
H          2.69803        0.66922        2.05471
