63

C          1.64058       -0.91529       -1.16983
C          2.82876       -1.26568       -1.67907
C          3.81466       -0.33670       -2.34391
C          5.08869        0.04179       -1.53005
C          5.67479       -1.14329       -0.75951
N          4.84766       -1.13769        0.50485
C          4.72327        0.32640        0.93420
C          4.92748        1.11819       -0.40238
C          3.92378        2.24556       -0.67033
C          4.33826        3.15179       -1.83766
C          3.33624        4.29523       -2.01369
S          3.88620        5.35475       -3.37917
C          2.67868        6.64399       -3.35022
S          1.51517        6.83129       -2.20623
N          2.85580        7.52601       -4.42408
C          3.58071        7.31332       -5.60527
N          3.53025        8.34848       -6.39766
C          2.75619        9.29324       -5.73123
C          2.32142        8.81323       -4.52891
C          3.44341        0.53694        1.73750
C          3.59168        1.83993        2.55113
O          4.72980        2.27127        2.76875
N          2.45798        2.44852        2.99092
C          1.09724        1.93013        2.80707
C          0.63973        0.95237        3.89736
C         -0.81703        0.51277        3.71363
C         -1.28723       -0.47444        4.78431
C          2.58854        3.66176        3.80056
H          0.96262       -1.65379       -0.74097
H          1.28164        0.11625       -1.20447
H          3.09349       -2.33175       -1.67094
H          3.30260        0.58396       -2.65283
H          4.16108       -0.82034       -3.27061
H          5.83627        0.39844       -2.25064
H          6.71963       -0.97678       -0.46785
H          5.58780       -2.12029       -1.25008
H          5.23983       -1.72478        1.24988
H          3.90194       -1.49039        0.26771
H          5.56861        0.52567        1.60473
H          5.91232        1.60062       -0.30432
H          3.85488        2.86854        0.23320
H          2.91291        1.84742       -0.84978
H          4.41651        2.57841       -2.77551
H          5.34194        3.56127       -1.63912
H          3.26360        4.91719       -1.11052
H          2.32683        3.92410       -2.24422
H          4.07156        6.36785       -5.81672
H          2.56185       10.26733       -6.16892
H          1.71203        9.22814       -3.73663
H          3.31377       -0.28593        2.46150
H          2.55655        0.53125        1.09303
H          1.00765        1.46338        1.81486
H          0.42801        2.80350        2.78661
H          0.76347        1.42565        4.88494
H          1.29805        0.06675        3.90035
H         -0.93957        0.06077        2.71376
H         -1.46708        1.40337        3.72206
H         -0.68001       -1.39175        4.78073
H         -2.33252       -0.76809        4.62269
H         -1.21790       -0.03589        5.79015
H          3.64991        3.90083        3.90730
H          2.14992        3.50931        4.79691
H          2.06808        4.49673        3.30957
