89

O          3.79091        1.77266       -1.90256
C          3.03828        1.08796       -1.21554
N          1.74444        0.77786       -1.52732
C          0.96892        1.17731       -2.64478
C         -0.33036        0.64986       -2.73102
C         -1.15372        0.98706       -3.80210
C         -0.69062        1.85403       -4.79628
C          0.60014        2.37833       -4.70404
C          1.43965        2.05130       -3.63725
C          3.51572        0.51860        0.13462
C          5.01745        0.25258        0.02933
N          5.63686        0.02899        1.35001
N          5.66619        1.10935        2.13714
C          6.21101        0.95303        3.33652
C          6.77091       -0.25623        3.80659
C          6.73768       -1.38313        2.94505
C          6.13056       -1.17432        1.70618
C          7.27962       -2.73808        3.31055
C          6.79388       -3.93105        2.48006
C          7.31713       -5.25119        3.05888
C          6.81917       -6.49585        2.31865
C          7.32067       -7.79850        2.95074
C          6.78475       -9.06543        2.27726
C          7.24899      -10.35249        2.96663
C          6.68831      -11.63134        2.33698
C          7.09490      -12.90173        3.09074
C          6.52055      -14.18711        2.48594
C          6.88900      -15.43959        3.28630
C          6.29985      -16.71978        2.68263
N          6.62934      -17.91660        3.45389
C          7.75738      -18.68512        3.29425
C          7.76742      -19.66775        4.28444
C          6.61184      -19.47941        5.06942
C          5.92659      -18.38681        4.53778
C          7.46507       -0.34336        5.12656
O          8.48483       -0.98951        5.27191
C          6.81217        0.30173        6.39902
C          7.71385        1.30078        7.21419
C          8.24089        2.56827        6.45039
C          7.15561        3.65496        6.15918
O          6.43333        3.56759        5.19752
O          7.09382        4.65829        7.03712
F          9.23033        3.11443        7.22607
F          8.79397        2.17276        5.27004
F          6.98293        1.74767        8.27801
F          8.78350        0.62092        7.68080
F          5.63080        0.91920        6.10430
F          6.53133       -0.73856        7.23730
H          1.25100        0.18899       -0.86265
H         -0.69369       -0.03039       -1.95656
H         -2.15958        0.57047       -3.85891
H         -1.33345        2.11907       -5.63552
H          0.96828        3.05746       -5.47366
H          2.44359        2.46017       -3.57058
H          2.96431       -0.38657        0.42912
H          3.34221        1.28850        0.90312
H          5.49861        1.13014       -0.42393
H          5.23575       -0.62673       -0.58857
H          6.22394        1.86730        3.93442
H          6.02879       -1.96497        0.96607
H          7.05772       -2.91946        4.37451
H          8.38091       -2.67718        3.27755
H          7.12823       -3.84209        1.43221
H          5.69008       -3.95459        2.46214
H          7.01882       -5.31870        4.11949
H          8.42050       -5.23625        3.05741
H          7.13411       -6.45111        1.26145
H          5.71492       -6.49743        2.30832
H          7.03649       -7.81140        4.01778
H          8.42430       -7.81199        2.93404
H          7.09370       -9.08063        1.21747
H          5.68090       -9.03502        2.27051
H          6.95490      -10.31588        4.03050
H          8.35215      -10.39427        2.96175
H          7.02007      -11.70224        1.28640
H          5.58640      -11.56714        2.30256
H          6.76729      -12.81866        4.14179
H          8.19593      -12.97369        3.12354
H          6.87402      -14.29382        1.44550
H          5.42133      -14.10090        2.42506
H          6.53277      -15.33961        4.32470
H          7.98487      -15.54365        3.34421
H          6.66653      -16.87103        1.65669
H          5.20342      -16.65114        2.62265
H          8.45898      -18.48249        2.49118
H          8.52462      -20.43542        4.40379
H          6.29254      -20.07118        5.92074
H          4.99641      -17.91795        4.84333
H          7.80081        4.57628        7.70755
