102

C          0.62882       -1.37006       -1.11944
C          2.15852       -1.36206       -1.05555
C          2.71620       -1.73054        0.32400
C          4.24717       -1.73179        0.38562
C          4.81609       -2.09980        1.75998
C          6.34794       -2.10618        1.80381
C          6.93157       -2.47485        3.17184
C          8.46370       -2.50690        3.19395
C          9.05757       -2.88469        4.55519
C         10.58672       -2.98985        4.54983
C         11.18299       -3.39396        5.90254
C         12.69963       -3.61360        5.86459
C         13.29342       -4.05381        7.20751
C         14.78014       -4.41715        7.12918
C         15.37099       -4.90605        8.45728
C         16.79909       -5.44685        8.31997
C         17.38471       -5.98532        9.63087
C         18.74436       -6.66936        9.43998
C         19.30489       -7.27557       10.73641
C         20.60374       -8.02994       10.45071
S         21.33197       -8.73083       11.98780
C         20.89989      -10.59424       12.13827
C         21.76919      -11.52012       11.23064
C         21.51137      -13.01161       11.54215
C         21.61493      -11.29731        9.71830
C         21.20827      -10.86736       13.63007
O         20.53227       -9.91411       14.43536
C         19.39064      -10.66912       11.88529
C         23.13971       -8.66763       11.62294
O         23.41525       -7.30847       11.55769
C         24.83877       -7.01749       11.46785
C         25.01054       -5.51195       11.39582
C         26.48759       -5.09987       11.33130
C         26.67975       -3.57987       11.25364
C         28.15171       -3.16390       11.20680
H          0.26511       -1.10388       -2.12158
H          0.19561       -0.65097       -0.40801
H          0.22311       -2.36237       -0.87172
H          2.53416       -0.36531       -1.34315
H          2.56147       -2.06275       -1.80666
H          2.33719       -2.72620        0.61583
H          2.31973       -1.02616        1.07686
H          4.62404       -0.73644        0.09086
H          4.63936       -2.43614       -0.36933
H          4.43820       -3.09402        2.05753
H          4.43103       -1.39314        2.51624
H          6.72484       -1.11274        1.50282
H          6.72854       -2.81323        1.04539
H          6.54331       -3.46193        3.47983
H          6.56811       -1.75904        3.93018
H          8.85475       -1.52128        2.88511
H          8.82059       -3.22295        2.43228
H          8.63138       -3.85018        4.88131
H          8.74120       -2.14557        5.31209
H         11.02085       -2.02602        4.23037
H         10.89386       -3.72530        3.78504
H         10.69512       -4.32222        6.24939
H         10.93871       -2.62599        6.65729
H         13.19961       -2.68966        5.52508
H         12.93059       -4.37785        5.10132
H         12.73098       -4.92800        7.58077
H         13.14335       -3.25734        7.95719
H         15.35717       -3.54850        6.76676
H         14.91307       -5.20507        6.36632
H         14.72464       -5.70143        8.86897
H         15.35097       -4.08705        9.19705
H         17.45865       -4.65898        7.91706
H         16.80071       -6.25549        7.56790
H         16.67742       -6.70897       10.07285
H         17.47932       -5.16596       10.36389
H         19.47069       -5.94903        9.02657
H         18.63965       -7.46621        8.68305
H         18.55534       -7.95234       11.17404
H         19.49058       -6.48545       11.48013
H         21.39647       -7.34866       10.10542
H         20.47447       -8.82869        9.71257
H         22.82232      -11.32838       11.49759
H         20.47357      -13.30321       11.33117
H         21.74483      -13.28667       12.57731
H         22.15595      -13.62088       10.89592
H         20.58640      -11.48007        9.37668
H         22.26042      -12.00597        9.18429
H         21.91192      -10.29415        9.38822
H         22.30176      -10.84899       13.80242
H         20.85623      -11.88914       13.84485
H         20.57335      -10.19373       15.36298
H         19.12110      -10.44929       10.84612
H         18.84269       -9.99464       12.55372
H         19.05039      -11.68977       12.10579
H         23.35926       -9.20935       10.68554
H         23.62649       -9.17852       12.47623
H         25.24926       -7.51467       10.57002
H         25.34090       -7.43842       12.35788
H         24.53138       -5.05857       12.27801
H         24.47474       -5.13284       10.51084
H         26.96795       -5.57182       10.45670
H         27.01847       -5.48786       12.21789
H         26.18931       -3.10875       12.12186
H         26.15662       -3.19365       10.36300
H         28.69370       -3.50718       12.10040
H         28.25487       -2.07197       11.15703
H         28.66065       -3.58565       10.32766
