57

N          4.12222        0.26547       -0.77678
C          4.58293       -1.10624       -1.04633
C          3.34038       -1.95217       -1.41652
C          2.59815       -2.49930       -0.16004
C          1.04496       -2.57633       -0.19411
C          0.45002       -1.24326        0.32448
C         -1.06922       -1.06079        0.23021
C         -1.54477        0.26173        0.85316
C         -3.07446        0.40533        0.85365
C         -3.77649       -0.52062        1.85755
C         -5.27555       -0.61941        1.59031
O         -5.93853       -1.47555        2.55071
C         -5.85199       -2.81773        2.31416
O         -5.24411       -3.30163        1.37316
C         -6.59749       -3.56481        3.35597
C         -6.68181       -4.89919        3.32342
N          0.57224       -2.72744       -1.64535
C          0.81036       -4.05166       -2.31749
C          0.23693       -5.19017       -1.48726
C          0.78780       -5.15881       -0.06004
C          0.49496       -3.79697        0.61421
C          0.97767       -3.75819        1.98850
C          1.38571       -3.75177        3.12675
O          2.51519       -1.11907       -2.25188
H          4.79788        0.95972       -1.08875
H          3.94693        0.43502        0.21279
H          5.13323       -1.56927       -0.21265
H          5.25383       -1.07740       -1.91448
H          3.66257       -2.79837       -2.04146
H          2.83767       -1.87945        0.71479
H          3.02312       -3.48773        0.06326
H          0.95527       -0.41064       -0.19073
H          0.75248       -1.17546        1.38051
H         -1.58705       -1.89490        0.72796
H         -1.41471       -1.06587       -0.82207
H         -1.09465        1.10293        0.30201
H         -1.16568        0.33142        1.88676
H         -3.45280        0.20499       -0.16440
H         -3.33868        1.45160        1.07051
H         -3.60945       -0.15949        2.88429
H         -3.36108       -1.53750        1.80266
H         -5.46258       -1.00969        0.57896
H         -5.77271        0.35341        1.70148
H         -7.07504       -2.97144        4.13645
H         -6.19971       -5.46535        2.52475
H         -7.23406       -5.45308        4.08165
H          1.10686       -1.95487       -2.14473
H         -0.43171       -2.50578       -1.66817
H          1.89539       -4.15638       -2.44812
H          0.35828       -3.98447       -3.31560
H          0.48538       -6.13995       -1.98009
H         -0.86411       -5.12603       -1.47401
H          1.87097       -5.35754       -0.05928
H          0.32912       -5.94915        0.54724
H         -0.60518       -3.69028        0.64722
H          1.73724       -3.75758        4.13806
H          2.74289       -0.20216       -1.91653
