70

C          0.77527       -0.03187        0.18571
C          2.30347        0.03181        0.12008
C          2.86946       -0.34639       -1.25303
C          4.39884       -0.29538       -1.32496
C          4.96302       -0.68333       -2.69517
C          6.49284       -0.64356       -2.76416
C          7.05499       -1.04030       -4.13246
C          8.58485       -1.00748       -4.20153
C          9.14330       -1.40678       -5.57054
C         10.67304       -1.37520       -5.64101
C         11.22746       -1.77114       -7.01256
C         12.75796       -1.74901       -7.07946
C         13.30627       -2.13901       -8.45555
C         14.83607       -2.14634       -8.50592
C         15.37991       -2.52414       -9.90416
C         16.87730       -2.57628       -9.91051
C         17.67320       -1.50175      -10.25308
C         19.08659       -1.62687      -10.16549
N         19.92474       -0.61850      -10.47425
N         19.68002       -2.77438       -9.76731
N         18.87965       -3.78145       -9.45053
C         17.54576       -3.74868       -9.49295
C         19.60068       -5.03413       -9.09965
C         19.95390       -5.84085      -10.35266
C         20.75747       -7.10088      -10.00563
C         21.09135       -7.93276      -11.24651
H          0.40160        0.24240        1.18183
H          0.40796       -1.04426       -0.03984
H          0.31557        0.65401       -0.54167
H          2.73348       -0.63710        0.88497
H          2.64253        1.04787        0.38452
H          2.44493        0.32606       -2.01965
H          2.52558       -1.36126       -1.52105
H          4.82205       -0.96440       -0.55479
H          4.74349        0.72052       -1.06258
H          4.54571       -0.01120       -3.46571
H          4.61318       -1.69690       -2.95954
H          6.90996       -1.31280       -1.99095
H          6.84430        0.37079       -2.50511
H          6.64103       -0.36929       -4.90573
H          6.70039       -2.05328       -4.39259
H          8.99961       -1.67835       -3.42852
H          8.94083        0.00548       -3.94338
H          8.72889       -0.73596       -6.34358
H          8.78739       -2.41967       -5.82883
H         11.08817       -2.04914       -4.87097
H         11.03046       -0.36339       -5.38086
H         10.81854       -1.09337       -7.78213
H         10.86616       -2.78054       -7.27615
H         13.16656       -2.43313       -6.31516
H         13.12258       -0.74211       -6.81162
H         12.91821       -1.44247       -9.21838
H         12.92756       -3.13750       -8.73391
H         15.22921       -2.85522       -7.75703
H         15.23106       -1.15568       -8.22538
H         15.03433       -1.79110      -10.64742
H         14.97431       -3.50300      -10.20355
H         17.22742       -0.56346      -10.58763
H         19.58176        0.28431      -10.77258
H         20.92532       -0.75717      -10.39489
H         17.02670       -4.65963       -9.20169
H         18.95136       -5.60060       -8.41933
H         20.49967       -4.71791       -8.55725
H         20.53429       -5.20073      -11.03571
H         19.02612       -6.11899      -10.87972
H         20.18897       -7.71559       -9.28841
H         21.68743       -6.80869       -9.49134
H         20.18017       -8.27452      -11.75806
H         21.67234       -8.82308      -10.97438
H         21.68593       -7.35569      -11.96890
