135

C          0.93210       -0.11541       -1.20006
C          2.44629       -0.20266       -0.99084
C          3.09900       -1.36841       -1.74236
C          4.61417       -1.46422       -1.53618
C          5.26467       -2.63170       -2.28549
C          6.78006       -2.72779       -2.08137
C          7.42833       -3.89436       -2.83385
C          8.94577       -3.98515       -2.64257
C          9.59024       -5.14521       -3.40786
C         11.11222       -5.22221       -3.25067
C         11.75012       -6.36033       -4.05386
C         13.27820       -6.39536       -3.96342
C         13.91794       -7.49479       -4.81557
C         15.44900       -7.45536       -4.82592
C         16.06911       -8.50216       -5.75737
C         17.59012       -8.38189       -5.88731
C         18.16317       -9.25691       -7.00865
C         19.66436       -8.96594       -7.25508
C         20.16101       -9.37519       -8.59468
N         21.04902      -10.37117       -8.78372
N         21.28436      -10.47878      -10.07553
N         20.56611       -9.57702      -10.70160
N         19.83958       -8.85119       -9.80641
C         18.87696       -7.80311      -10.22701
C         18.73128       -6.65692       -9.23038
C         17.91075       -5.51300       -9.83649
S         17.63188       -4.22002       -8.60643
C         19.23205       -3.37107       -8.61265
S         20.38738       -3.64152       -9.78835
N         19.35600       -2.50097       -7.59030
C         18.35531       -2.38574       -6.51781
C         18.58322       -3.39648       -5.38449
C         17.42192       -3.43508       -4.38892
C         17.61286       -4.47863       -3.28391
C         16.43238       -4.55201       -2.31178
C         16.56466       -5.66007       -1.26352
C         15.38303       -5.72955       -0.29023
C         15.51281       -6.85329        0.74017
C         20.54667       -1.64283       -7.46765
C         20.35408       -0.27258       -8.12691
C         21.60707        0.60173       -8.01532
C         21.39635        2.02432       -8.54501
C         22.66653        2.88084       -8.52197
C         22.43450        4.32970       -8.96328
C         23.71045        5.17846       -8.98212
C         23.46285        6.63873       -9.36910
C         20.54794       -9.49408      -12.16678
C         19.71809      -10.61582      -12.85852
C         18.20654      -10.54936      -12.60538
O         17.87584      -10.67316      -11.21899
O         20.01944      -10.56745      -14.23972
H          0.49600        0.72801       -0.64706
H          0.42816       -1.03205       -0.85866
H          0.68258        0.02031       -2.26314
H          2.66446       -0.29927        0.08636
H          2.91764        0.74273       -1.30932
H          2.88251       -1.27252       -2.82133
H          2.62687       -2.31523       -1.42506
H          4.83009       -1.55812       -0.45715
H          5.08619       -0.51808       -1.85548
H          5.04796       -2.53787       -3.36443
H          4.79310       -3.57782       -1.96597
H          6.99813       -2.82296       -1.00301
H          7.25153       -1.78141       -2.40077
H          7.20302       -3.80243       -3.91124
H          6.96220       -4.84162       -2.50985
H          9.17427       -4.08368       -1.56677
H          9.41011       -3.03548       -2.96280
H          9.34277       -5.05347       -4.48047
H          9.13937       -6.09722       -3.07665
H         11.36840       -5.33616       -2.18263
H         11.55854       -4.26224       -3.56623
H         11.45449       -6.26370       -5.11371
H         11.33820       -7.32665       -3.71417
H         13.58483       -6.51943       -2.91058
H         13.67813       -5.41534       -4.28012
H         13.55121       -7.40320       -5.85362
H         13.57565       -8.48277       -4.46197
H         15.83506       -7.58914       -3.80119
H         15.78144       -6.45135       -5.14484
H         15.61794       -8.39160       -6.76022
H         15.79984       -9.51603       -5.41637
H         18.07983       -8.62703       -4.93039
H         17.84595       -7.32634       -6.09382
H         17.58368       -9.07839       -7.92904
H         18.03535      -10.32528       -6.77861
H         20.28900       -9.50066       -6.52790
H         19.86340       -7.89326       -7.11504
H         17.92586       -8.31991      -10.42352
H         19.25555       -7.39975      -11.17502
H         19.72364       -6.25678       -8.97354
H         18.23127       -6.99005       -8.31535
H         16.90085       -5.83470      -10.13260
H         18.42721       -5.05779      -10.69581
H         17.34797       -2.50354       -6.94542
H         18.40038       -1.35488       -6.13872
H         19.52542       -3.15898       -4.86462
H         18.71355       -4.39620       -5.82977
H         16.48709       -3.65388       -4.93505
H         17.28130       -2.43880       -3.93547
H         18.54016       -4.26120       -2.72625
H         17.76551       -5.46986       -3.74748
H         15.50196       -4.70303       -2.88394
H         16.31760       -3.57886       -1.80365
H         17.49974       -5.52017       -0.69306
H         16.67031       -6.63391       -1.77524
H         14.44872       -5.85835       -0.86294
H         15.28395       -4.76106        0.22821
H         15.57523       -7.83794        0.25231
H         14.65259       -6.87625        1.42283
H         16.41846       -6.73148        1.35275
H         21.38969       -2.17597       -7.92615
H         20.75385       -1.52983       -6.39247
H         19.49765        0.24382       -7.66134
H         20.09402       -0.42398       -9.18625
H         22.43461        0.12071       -8.56461
H         21.93119        0.65336       -6.96073
H         20.61076        2.51878       -7.94710
H         21.00597        1.97801       -9.57646
H         23.43001        2.41651       -9.17057
H         23.09369        2.87609       -7.50371
H         21.69482        4.79947       -8.29077
H         21.97541        4.33917       -9.96793
H         24.43404        4.72802       -9.68256
H         24.18819        5.13719       -7.98868
H         23.00406        6.71702      -10.36618
H         24.39860        7.21391       -9.38917
H         22.78577        7.13163       -8.65537
H         21.59310       -9.60267      -12.47958
H         20.19964       -8.49689      -12.46125
H         20.10650      -11.58153      -12.49535
H         17.72001      -11.32708      -13.21366
H         17.81257       -9.57310      -12.94072
H         17.71635      -11.60771      -11.01694
H         19.46819       -9.89765      -14.67998
