55

C          1.48837       -1.84877        0.22900
C          2.79976       -1.07332        0.08647
C          3.56880       -0.96878        1.40875
C          4.87592       -0.20854        1.26277
O          5.52164       -0.15371        2.54666
C          6.77555        0.49401        2.50080
C          7.38833        0.38333        3.85965
N          8.21781        1.24318        4.39961
N          8.53969        0.69299        5.61622
C          7.89768       -0.47015        5.81709
N          7.96259       -1.24721        6.92221
C          7.67384       -2.68968        6.84355
C          6.33178       -3.12327        7.43952
C          5.12440       -2.79997        6.54907
O          5.25239       -2.49216        5.35373
N          3.92503       -2.93393        7.17097
C          2.60294       -2.80312        6.66622
C          2.30758       -2.50732        5.32676
C          0.96981       -2.41188        4.93576
C         -0.06767       -2.60268        5.85071
C          0.23573       -2.89371        7.18381
C          1.56334       -2.99435        7.59098
C          8.46075       -0.69106        8.19258
C          9.97468       -0.41776        8.28925
N         10.34388        0.87872        7.67757
N          7.16478       -0.69516        4.69771
H          0.95258       -1.90628       -0.72743
H          0.81816       -1.36547        0.95555
H          1.66909       -2.87810        0.57208
H          2.58978       -0.06116       -0.29621
H          3.43537       -1.56183       -0.67028
H          3.78629       -1.97794        1.79562
H          2.94682       -0.46258        2.16497
H          4.69560        0.82045        0.89793
H          5.54547       -0.71042        0.53758
H          6.69855        1.56446        2.23488
H          7.44439        0.01444        1.75541
H          9.29672        1.04861        6.26674
H          8.48453       -3.21678        7.36830
H          7.72418       -2.99667        5.79082
H          6.19492       -2.70296        8.44811
H          6.36249       -4.21860        7.56691
H          3.96549       -3.19635        8.15273
H          3.10924       -2.35660        4.60994
H          0.74094       -2.18765        3.89314
H         -1.10645       -2.52756        5.52954
H         -0.56241       -3.04518        7.91075
H          1.79750       -3.22442        8.63375
H          8.18609       -1.41512        8.97065
H          7.90606        0.23590        8.41428
H         10.52775       -1.21634        7.77488
H         10.25693       -0.46622        9.35411
H         11.34439        0.90555        7.47465
H         10.16787        1.64279        8.33338
H          6.40767       -1.41427        4.65906
