79

C         13.00277       -3.76069       14.36697
C         12.47876       -2.40143       13.89632
C         12.93027       -2.03430       12.47805
C         12.43179       -0.66493       12.00450
C         12.86670       -0.31658       10.57739
C         12.41275        1.06977       10.10856
C         12.82095        1.38674        8.66629
C         12.42259        2.79032        8.19871
C         12.79117        3.07053        6.73837
C         12.46568        4.49414        6.27433
C         12.81162        4.73508        4.80005
C         12.51607        6.15085        4.27797
C         13.24748        7.29842        4.99561
C         14.77338        7.14255        5.02711
C         15.48171        8.37659        5.60093
C         16.96935        8.18811        5.86047
C         17.69333        9.32251        6.60705
O         19.01747        9.41796        6.03317
C         19.22247        8.35975        5.15954
N         17.85825        7.99037        4.61192
C         17.48541        8.67508        3.31086
C         17.58582       10.19248        3.31244
C         19.79127        7.03594        5.75556
O         19.33648        5.95851        5.39468
O         20.76659        7.27062        6.60325
C         21.44861        6.10105        7.21126
C         22.60874        5.63440        6.35023
C         23.38581        4.49845        7.03514
C         24.55364        3.99241        6.18521
H         12.65806       -3.99666       15.38313
H         14.10294       -3.78341       14.37635
H         12.66301       -4.57133       13.70510
H         12.80948       -1.61591       14.59707
H         11.37636       -2.39636       13.93778
H         12.58499       -2.81247       11.77429
H         14.03379       -2.05638       12.43061
H         12.79357        0.11447       12.69857
H         11.32971       -0.63487       12.06738
H         12.47727       -1.08141        9.88240
H         13.96726       -0.38059       10.50625
H         12.82712        1.83799       10.78564
H         11.31528        1.14768       10.20204
H         12.37329        0.63727        7.99017
H         13.91437        1.26707        8.56258
H         12.90322        3.54199        8.85059
H         11.33558        2.92814        8.33294
H         12.27078        2.34753        6.08655
H         13.86997        2.88061        6.59167
H         13.00690        5.20938        6.91961
H         11.39356        4.70161        6.43576
H         12.24748        4.01960        4.18060
H         13.87391        4.48416        4.63035
H         11.43339        6.34344        4.34266
H         12.76327        6.19000        3.20358
H         12.88064        7.39450        6.03073
H         12.98884        8.24662        4.49577
H         15.13343        6.92631        4.00504
H         15.04610        6.26223        5.63241
H         15.04169        8.61457        6.58434
H         15.29999        9.26843        4.98054
H         17.11114        7.24483        6.40928
H         17.76370        9.10250        7.68150
H         17.20918       10.29944        6.47062
H         19.88634        8.68698        4.34360
H         17.92621        6.96349        4.45272
H         16.46911        8.33822        3.07387
H         18.15920        8.23575        2.56169
H         16.88717       10.66275        4.01448
H         17.32509       10.54487        2.30616
H         18.59723       10.55283        3.53636
H         20.69736        5.31462        7.36075
H         21.78198        6.48917        8.18104
H         23.28187        6.48477        6.15683
H         22.22901        5.28726        5.37579
H         22.69882        3.66440        7.25464
H         23.76218        4.85101        8.00972
H         24.20397        3.58562        5.22508
H         25.09977        3.19409        6.70433
H         25.26979        4.79799        5.96701
