60

N          1.24247       -0.62852        1.00945
C          2.58930       -0.53610        0.99069
C          3.22810        0.49196        1.76960
C          4.58636        0.62166        1.78012
C          5.39443       -0.27090        1.01055
C          4.76425       -1.30210        0.22885
C          3.37491       -1.42013        0.22808
C          5.63464       -2.16573       -0.49119
C          7.00286       -2.05315       -0.48604
N          7.56489       -0.99579        0.26082
C          6.77031       -0.15857        0.98353
C          9.01555       -0.64355        0.23226
C          9.46158        0.25664       -1.00309
C          8.85333        1.70672       -1.21157
C          9.06278        2.89285       -0.17980
C         10.50003        3.36921        0.27747
C         11.56889        3.90223       -0.75959
C         11.28263        5.16734       -1.66700
C         10.92012        6.53541       -0.97753
F         11.80012        6.83291       -0.00806
F         10.95125        7.49849       -1.91087
F          9.68184        6.49230       -0.44925
F         12.42618        5.36368       -2.36795
F         10.28716        4.86128       -2.53895
F         12.67401        4.16427       -0.02124
F         11.85615        2.88393       -1.61458
F         10.28256        4.34666        1.19208
F         11.08215        2.31701        0.91361
F          8.40275        3.94585       -0.70993
F          8.41774        2.54233        0.97713
F          9.30350        2.12065       -2.41407
F          7.49526        1.54533       -1.29705
F         10.80546        0.33457       -0.95591
F          9.10886       -0.42834       -2.12918
F          9.32147        0.00161        1.37759
F          9.75390       -1.76112        0.18341
C          7.83163       -3.10641       -1.16799
C          8.32322       -4.22011       -0.24301
C          7.78623       -4.40025        1.03731
C          8.22666       -5.43529        1.86420
C          9.21664       -6.30470        1.40900
C          9.75453       -6.13006        0.13282
C          9.32718       -5.09686       -0.71274
C          9.93223       -4.94846       -2.08552
H          0.67913        0.00477        1.56280
H          0.75374       -1.33529        0.47391
H          2.60733        1.17335        2.35346
H          5.06198        1.40663        2.36945
H          2.89738       -2.20334       -0.36281
H          5.21238       -2.99491       -1.05824
H          7.27658        0.62456        1.53802
H          8.67790       -2.67119       -1.70924
H          7.18444       -3.54047       -1.94690
H          7.00598       -3.73094        1.40466
H          7.79613       -5.55801        2.85832
H          9.57188       -7.11697        2.04341
H         10.52880       -6.81208       -0.22331
H         10.68519       -5.72468       -2.26342
H         10.43024       -3.97419       -2.21517
H          9.17778       -5.03381       -2.88311
