70

C          1.34280        0.22554        0.62328
C          2.78496        0.14582        0.11762
C          3.31140       -1.28997        0.00600
C          4.74525       -1.36796       -0.52715
C          5.27106       -2.80031       -0.67762
C          6.68642       -2.83988       -1.26834
C          7.20648       -4.26909       -1.44408
S          8.88828       -4.13118       -2.16455
C          9.39944       -5.76945       -2.31432
N         10.53909       -6.16919       -2.84020
N         10.54638       -7.54875       -2.76251
C          9.43008       -7.87618       -2.19100
O          8.62626       -6.82887       -1.86162
N          9.06708       -9.16816       -1.80635
N          7.88860       -9.75234       -2.24870
C          8.01552      -11.00799       -1.92798
N          9.21281      -11.27804       -1.29171
C          9.87148      -10.08830       -1.20786
N         11.05341       -9.91727       -0.57503
C         11.63597       -8.71345       -0.18788
N         12.90674       -8.49360       -0.09330
N         13.02439       -7.21933        0.45392
C         11.81063       -6.75956        0.61416
O         10.84032       -7.70069        0.24788
S         11.36510       -5.15770        1.07740
C          9.62343       -5.38038        1.61760
C          9.05815       -4.00107        1.94816
C          9.72883      -12.57015       -0.78258
C          8.67794      -13.67562       -0.74115
C          9.28909      -14.97135       -0.19188
C          8.24975      -16.10052       -0.06333
N          8.83661      -17.33708        0.40770
C          9.08817      -17.65079        1.73004
C          9.78304      -18.84447        1.76221
C          9.96960      -19.26593        0.41513
C          9.38322      -18.31700       -0.39942
H          0.99698        1.26614        0.68424
H          1.24553       -0.21496        1.62667
H          0.65423       -0.31435       -0.04345
H          3.44443        0.72322        0.78753
H          2.85700        0.63330       -0.86932
H          2.64426       -1.87088       -0.65549
H          3.25698       -1.77851        0.99521
H          5.41753       -0.80070        0.14010
H          4.79559       -0.86186       -1.50696
H          4.58761       -3.37594       -1.32540
H          5.26298       -3.30521        0.30433
H          7.37389       -2.27369       -0.61827
H          6.68951       -2.32826       -2.24449
H          6.57572       -4.84701       -2.13261
H          7.26640       -4.79731       -0.48291
H          7.26408      -11.76187       -2.13365
H         11.68869      -10.71231       -0.52364
H          9.61321       -6.04196        2.49342
H          9.06291       -5.85771        0.80450
H          9.60922       -3.52313        2.76881
H          8.01056       -4.10001        2.26294
H          9.09398       -3.33388        1.07647
H         10.11726      -12.38082        0.23068
H         10.57210      -12.86885       -1.42599
H          8.28244      -13.86123       -1.75306
H          7.83256      -13.35895       -0.10815
H          9.73740      -14.79087        0.79805
H         10.10292      -15.31527       -0.84937
H          7.77489      -16.29393       -1.03739
H          7.44877      -15.80293        0.63135
H          8.73435      -17.00935        2.53157
H         10.10345      -19.36677        2.65782
H         10.45842      -20.17467        0.07903
H          9.28787      -18.26382       -1.47964
