87

C          1.09881        1.32080        1.06711
C          2.60862        1.30861        0.81449
C          3.02544        2.15046       -0.39660
C          4.53408        2.14829       -0.66307
C          4.93773        2.97026       -1.89153
C          6.44598        2.97671       -2.16139
C          6.83815        3.76762       -3.41411
C          8.34733        3.78577       -3.67691
C          8.73743        4.54620       -4.95008
C         10.25488        4.58361       -5.17310
C         10.64167        5.30796       -6.44935
O         12.09143        5.34668       -6.51958
C         12.58662        5.95215       -7.66298
N         14.08585        5.90321       -7.51926
C         14.60859        4.47777       -7.58702
C         16.00887        4.33625       -6.99725
C         16.40934        2.86345       -6.74748
C         16.36306        2.02497       -8.04083
C         16.71630        0.53397       -7.86295
C         16.44953       -0.26361       -9.11097
C         17.34430       -0.64543      -10.04122
C         18.81628       -0.33130       -9.97991
C         16.91491       -1.44474      -11.24358
C         17.78497        2.82494       -6.06844
C         14.78869        6.85956       -8.45189
C         14.69243        8.28223       -7.89819
O         14.89232        8.16363       -6.50174
C         15.01703        9.41896       -5.80742
C         15.12123        9.15786       -4.32198
O         16.33707        8.48886       -4.05068
C         16.56101        8.30979       -2.65487
H          0.83057        0.70816        1.93881
H          0.54584        0.92606        0.20163
H          0.73303        2.34158        1.25390
H          2.95021        0.26965        0.66866
H          3.13619        1.67573        1.71131
H          2.68154        3.19016       -0.25248
H          2.49665        1.78145       -1.29346
H          4.88063        1.10755       -0.79139
H          5.06310        2.53413        0.22634
H          4.58517        4.00942       -1.76785
H          4.41117        2.57793       -2.77947
H          6.80348        1.93664       -2.26108
H          6.97259        3.39361       -1.28478
H          6.47140        4.80502       -3.32165
H          6.31943        3.34104       -4.29052
H          8.71973        2.74878       -3.74538
H          8.86359        4.23610       -2.81117
H          8.34700        5.57700       -4.89469
H          8.24394        4.07832       -5.81921
H         10.65503        3.55772       -5.21111
H         10.74489        5.08442       -4.32268
H         10.25646        6.34408       -6.45762
H         10.25197        4.78713       -7.34282
H         12.29013        7.01349       -7.74807
H         12.32395        5.41938       -8.59760
H         14.28839        6.28507       -6.57187
H         14.55602        4.18085       -8.64292
H         13.88548        3.88065       -7.01675
H         16.05107        4.87962       -6.03762
H         16.76286        4.79963       -7.65464
H         15.66991        2.43836       -6.04277
H         17.04659        2.46382       -8.78974
H         15.35414        2.07485       -8.48468
H         16.11341        0.12234       -7.03519
H         17.76614        0.43362       -7.55532
H         15.40252       -0.54198       -9.27532
H         19.10212        0.25520       -9.09867
H         19.12635        0.23249      -10.87444
H         19.41351       -1.25718       -9.97921
H         15.83420       -1.63521      -11.24390
H         17.43385       -2.41626      -11.27490
H         17.17529       -0.92534      -12.18013
H         18.57475        3.17400       -6.75139
H         18.04658        1.80905       -5.74904
H         17.80648        3.46474       -5.17511
H         14.35217        6.76604       -9.45452
H         15.83534        6.53991       -8.48790
H         13.71575        8.75378       -8.12052
H         15.47428        8.89706       -8.37842
H         14.13128       10.04746       -6.00986
H         15.91885        9.94295       -6.16758
H         14.25168        8.55974       -3.97872
H         15.07576       10.13483       -3.79984
H         17.52593        7.80075       -2.55111
H         15.77087        7.69004       -2.19327
H         16.60525        9.27904       -2.12704
