49

O          2.78946       -1.07191       -0.49817
C          2.85173       -0.51496        0.84657
C          3.14460        0.99313        0.81009
C          2.09035        1.86599        0.03235
C          2.11305        1.82901       -1.50200
N          1.36286        0.64337       -2.04002
C          1.48381        0.54269       -3.54117
C          0.95539       -0.75979       -4.08122
C          0.39016       -0.82585       -5.44068
O         -0.46178       -0.85005       -4.28310
C         -0.06637        0.68914       -1.56206
C         -0.09306        0.74586       -0.03254
O          0.73302        1.78206        0.49131
N         -1.44814        1.07322        0.40497
N         -2.33466        0.11566       -0.16040
N         -1.58829        1.16727        1.81660
C          3.25810        1.47019        2.31695
C          3.61908        2.95735        2.46610
C          2.05912        1.15641        3.22998
C          4.52550        1.19212        0.14006
H          2.80753       -2.03944       -0.43279
H          3.66845       -1.01187        1.39322
H          1.91068       -0.73226        1.36845
H          2.37060        2.90175        0.27571
H          3.13455        1.78861       -1.89441
H          1.61325        2.72443       -1.89529
H          1.82545       -0.19933       -1.59890
H          2.55408        0.64066       -3.77489
H          0.94444        1.39582       -3.97522
H          1.41613       -1.66851       -3.67244
H          0.45493       -1.76614       -5.99365
H          0.32728        0.08327       -6.04646
H         -0.59615       -0.19243       -1.92910
H         -0.53545        1.59023       -1.98034
H          0.22828       -0.24133        0.38108
H         -3.25896        0.54839       -0.18434
H         -2.41328       -0.70233        0.45920
H         -1.31368        2.10698        2.10353
H         -0.98245        0.49400        2.30760
H          4.11641        0.89477        2.70656
H          2.77464        3.61597        2.21328
H          4.48557        3.25845        1.86397
H          3.87160        3.16501        3.51411
H          1.17076        1.72919        2.93833
H          2.31194        1.43763        4.26104
H          1.79067        0.09189        3.25399
H          4.61833        0.61431       -0.78817
H          5.32015        0.84788        0.81573
H          4.73229        2.24551       -0.09092
