49

C          1.02524       -0.02349        0.24761
O          2.44409       -0.02234        0.16928
C          2.91552        0.26304       -1.13416
C          4.43569        0.28529       -1.06724
O          4.92269        0.52938       -2.38755
C          6.32711        0.66467       -2.43769
C          6.69280        0.87308       -3.90185
O          8.08073        1.24244       -3.94571
C          8.56559        1.45519       -5.24111
C          9.95792        2.11866       -5.05424
C         10.61200        2.44501       -6.34326
N         11.32012        1.57036       -7.00358
C         11.87798        2.04974       -8.27669
C         11.06646        3.33664       -8.55549
C         10.58147        3.74671       -7.08887
C          9.27378        4.54378       -6.94148
C          9.36439        6.08612       -6.95072
C          9.77230        6.70179       -8.30353
F          8.95274        6.26359       -9.30961
F          9.71427        8.03769       -8.28320
F         11.04610        6.34722       -8.64471
O          8.14647        6.64447       -6.50671
N         10.06370        3.09450       -9.55579
H          0.76320       -0.25782        1.28572
H          0.58325       -0.78700       -0.41820
H          0.60537        0.96390       -0.01796
H          2.54038        1.24363       -1.48831
H          2.58133       -0.50544       -1.85899
H          4.81258       -0.68170       -0.68553
H          4.77249        1.08004       -0.37605
H          6.83546       -0.23422       -2.03798
H          6.67062        1.53641       -1.84628
H          6.06981        1.67989       -4.32835
H          6.51914       -0.04878       -4.48451
H          7.89184        2.11351       -5.82517
H          8.67602        0.50570       -5.80486
H         10.58117        1.42636       -4.46892
H          9.82232        3.03283       -4.46082
H         11.51749        0.63636       -6.64056
H         11.74600        1.29651       -9.06348
H         12.95255        2.24407       -8.14369
H         11.72945        4.11706       -8.93815
H         11.41011        4.33225       -6.63942
H          8.81601        4.32287       -5.96805
H          8.55166        4.21364       -7.70444
H         10.12648        6.41887       -6.22678
H          7.46364        6.53841       -7.19187
H          9.30043        2.47974       -9.27812
H          9.68905        3.94198       -9.97542
