83

C          0.60192       -0.67951        0.01270
C          2.10562       -0.95705       -0.05384
C          2.74497       -1.18142        1.32098
C          4.24268       -1.49658        1.25840
C          4.89133       -1.68855        2.63322
C          6.38082       -2.03936        2.56122
C          7.04413       -2.20378        3.93268
C          8.52658       -2.58006        3.84677
C          9.20359       -2.73405        5.21340
C         10.67838       -3.13928        5.10003
C         11.34814       -3.30452        6.45208
O         12.71642       -3.71088        6.23233
C         13.44043       -3.90999        7.41157
C         14.83325       -4.34366        7.07031
C         15.78715       -4.61348        8.07596
N         17.02435       -4.99644        7.82628
N         17.39824       -5.14127        6.54714
C         16.58082       -4.89958        5.48896
C         15.26369       -4.49402        5.76393
C         17.03352       -5.08791        4.07903
C         16.51690       -6.43189        3.50095
C         17.05232       -6.68697        2.08051
C         16.48046       -7.95996        1.50212
C         17.06444       -9.20251        1.79259
C         16.51259      -10.38420        1.29391
C         15.36477      -10.33926        0.49767
C         14.77527       -9.10738        0.20136
C         15.32933       -7.92705        0.70146
C         18.84268       -5.54298        6.41916
C         19.13382       -6.84772        5.71161
C         20.03859       -6.81086        4.63973
C         20.43780       -7.97731        3.98912
C         19.91680       -9.20200        4.40903
C         19.01372       -9.24547        5.47216
C         18.60974       -8.08570        6.14924
C         17.64788       -8.20235        7.30505
H          0.18119       -0.49624       -0.98560
H          0.38507        0.20475        0.63067
H          0.05776       -1.52934        0.45132
H          2.61461       -0.11604       -0.55490
H          2.29002       -1.84052       -0.68855
H          2.22069       -2.00598        1.83626
H          2.58416       -0.28592        1.94725
H          4.76451       -0.68388        0.72212
H          4.39832       -2.40553        0.65053
H          4.35601       -2.48329        3.18245
H          4.75978       -0.76906        3.23033
H          6.91266       -1.25682        1.99165
H          6.50670       -2.97107        1.98189
H          6.50466       -2.97498        4.51008
H          6.93632       -1.26643        4.50597
H          9.06423       -1.81581        3.25877
H          8.63026       -3.52345        3.28247
H          8.65815       -3.48662        5.80854
H          9.12100       -1.78545        5.77148
H         11.23196       -2.38305        4.51991
H         10.76313       -4.08884        4.54669
H         10.83613       -4.07380        7.06026
H         11.33863       -2.35725        7.02313
H         12.97583       -4.68371        8.06177
H         13.49546       -2.98653        8.02973
H         15.55382       -4.51473        9.13831
H         14.58308       -4.28847        4.93873
H         18.12461       -5.04292        3.99426
H         16.62364       -4.25766        3.48390
H         15.41594       -6.42495        3.48508
H         16.82125       -7.25740        4.15992
H         18.15125       -6.74644        2.11792
H         16.79629       -5.83401        1.43191
H         17.96416       -9.24193        2.40973
H         16.98280      -11.34227        1.51962
H         14.93465      -11.25988        0.10188
H         13.88607       -9.06600       -0.42870
H         14.86973       -6.96650        0.45637
H         19.18276       -5.55837        7.46179
H         19.35656       -4.71564        5.91026
H         20.45430       -5.85147        4.32232
H         21.15106       -7.92862        3.16657
H         20.21815      -10.12601        3.91455
H         18.61626      -10.20753        5.79998
H         17.55146       -9.24767        7.62010
H         16.63761       -7.85340        7.03594
H         17.97113       -7.61830        8.17866
