91

C         25.53231       -1.71532       -2.33479
C         24.56579       -0.86580       -3.16352
C         23.15430       -1.45746       -3.24781
C         22.17808       -0.60447       -4.06416
C         20.75744       -1.17595       -4.11452
C         19.77774       -0.31339       -4.91737
C         18.34866       -0.86474       -4.92562
C         17.36106        0.00751       -5.70957
C         15.92513       -0.52994       -5.65310
C         14.95207        0.33849       -6.42423
O         13.61504       -0.22902       -6.25722
C         12.61430        0.41619       -6.92312
N         12.61895        0.00623       -8.41069
C         12.71486       -1.22275       -8.96118
N         12.74140       -1.09450      -10.30435
N         12.67105        0.18870      -10.59363
N         12.59464        0.85606       -9.46241
C         12.55046        2.32545       -9.39503
O         13.72541        2.72854       -8.76715
C         13.77110        4.15728       -8.49451
C         15.03235        4.43621       -7.69876
C         15.19057        5.92053       -7.34516
C         16.45793        6.19965       -6.52753
C         16.61983        7.67374       -6.15141
C         12.77298       -2.51904       -8.24519
C         11.49148       -2.80448       -7.43925
O         10.64085       -1.96351       -7.21464
O         11.50330       -4.06761       -7.02653
C         10.36930       -4.52209       -6.19866
C          9.31461       -5.21729       -7.04338
C          8.16437       -5.73067       -6.16521
C          7.09847       -6.50968       -6.94457
C          5.92901       -6.96039       -6.06201
C          4.88923       -7.81182       -6.79762
C          3.71382       -8.23928       -5.91069
C          2.70185       -9.13276       -6.63209
H         26.53287       -1.26391       -2.29458
H         25.64106       -2.72509       -2.75806
H         25.17764       -1.82907       -1.29958
H         24.96730       -0.73897       -4.18320
H         24.50682        0.14912       -2.73504
H         22.75522       -1.59061       -2.22661
H         23.20849       -2.47094       -3.68323
H         22.56368       -0.49018       -5.09260
H         22.14400        0.41478       -3.64039
H         20.37697       -1.29315       -3.08451
H         20.78544       -2.19334       -4.54258
H         20.14061       -0.21525       -5.95555
H         19.76951        0.70965       -4.50186
H         17.99287       -0.96810       -3.88587
H         18.34960       -1.88470       -5.34778
H         17.69103        0.08256       -6.76017
H         17.38427        1.03504       -5.30741
H         15.58884       -0.59414       -4.60636
H         15.89324       -1.55493       -6.05821
H         15.20239        0.37262       -7.49884
H         14.93432        1.37414       -6.04502
H         12.70600        1.51249       -6.93110
H         11.64457        0.06906       -6.54743
H         11.63746        2.62312       -8.84364
H         12.46255        2.63951      -10.44978
H         12.86518        4.44329       -7.92795
H         13.76613        4.70551       -9.45270
H         15.90230        4.09088       -8.27947
H         15.00860        3.83619       -6.77400
H         14.30795        6.26334       -6.77790
H         15.21231        6.52192       -8.26993
H         17.33827        5.86380       -7.10051
H         16.43886        5.58452       -5.61187
H         16.68152        8.31110       -7.04538
H         17.53418        7.83596       -5.56589
H         15.77198        8.02935       -5.54788
H         13.61550       -2.52792       -7.53691
H         12.94279       -3.31154       -8.98424
H          9.96435       -3.65146       -5.66724
H         10.83571       -5.21020       -5.48258
H          9.77910       -6.05404       -7.58887
H          8.92526       -4.51383       -7.79675
H          7.68962       -4.87659       -5.65232
H          8.57097       -6.37692       -5.36819
H          7.56440       -7.39129       -7.41783
H          6.71656       -5.88646       -7.77165
H          5.43606       -6.07093       -5.63149
H          6.32173       -7.53216       -5.20278
H          5.38050       -8.71105       -7.20927
H          4.50439       -7.25319       -7.66908
H          3.20459       -7.33938       -5.52595
H          4.10366       -8.76662       -5.02343
H          2.26857       -8.62389       -7.50602
H          1.87305       -9.41749       -5.96996
H          3.17303      -10.05999       -6.99063
