57

C          9.67893       -1.76462      -10.81286
O          9.43428       -2.10473       -9.44672
C          8.08009       -2.51997       -9.21060
C          7.96091       -3.04980       -7.78974
O          8.13298       -2.05014       -6.78257
C          6.93386       -1.35234       -6.43436
C          7.28181       -0.23816       -5.47317
O          7.85498        0.85093       -6.20571
C          8.52633        1.81033       -5.39688
C         10.03510        1.55232       -5.32774
N         10.70605        1.74520       -6.62690
C         11.21786        3.08589       -6.97536
C         12.74895        3.19512       -6.90809
C         13.24887        3.28266       -5.47224
O         12.53156        3.28066       -4.48784
O         14.58582        3.38549       -5.44538
C         15.18454        3.51412       -4.12586
O         10.68500        3.48501       -8.23730
C         10.99144        2.61671       -9.29894
N         11.02078        1.22858       -8.86097
C         10.73307        0.81996       -7.60393
N         10.55484       -0.48823       -7.40160
C         12.30849        2.87462      -10.08991
O         12.95273        1.94595      -10.54418
O         12.54501        4.17152      -10.24222
C         13.70402        4.54148      -11.08072
C         13.32390        4.58397      -12.54761
H         10.75070       -1.54884      -10.90645
H          9.09296       -0.88143      -11.12105
H          9.43209       -2.60850      -11.47721
H          7.81738       -3.32950       -9.91566
H          7.38958       -1.67515       -9.39132
H          8.75160       -3.79464       -7.61665
H          6.98673       -3.55745       -7.67509
H          6.22250       -2.04680       -5.94987
H          6.44288       -0.92112       -7.32531
H          7.98441       -0.62642       -4.71210
H          6.36809        0.09863       -4.95113
H          8.12123        1.83385       -4.37036
H          8.33717        2.79620       -5.84940
H         10.24949        0.54198       -4.95050
H         10.51981        2.24229       -4.62496
H         10.77881        3.78744       -6.25649
H         13.05478        4.11335       -7.43147
H         13.25582        2.35811       -7.41088
H         16.25027        3.67054       -4.31179
H         15.02092        2.59662       -3.54731
H         14.74953        4.36838       -3.59399
H         10.16925        2.76593      -10.02333
H         11.51238        0.59382       -9.48727
H         10.18540       -1.05747       -8.18592
H         10.22114       -0.80559       -6.49912
H         14.50877        3.82269      -10.88169
H         13.98349        5.52901      -10.69706
H         13.06424        3.58739      -12.92572
H         14.18209        4.94977      -13.12802
H         12.48309        5.26778      -12.71983
