62

O          9.85553        5.66789        0.54038
C          9.20080        5.94055       -0.70753
C          9.61378        4.85050       -1.67891
N          9.18006        3.53703       -1.19280
C          9.62822        2.43324       -2.02614
C          8.91706        1.11277       -1.68548
C          7.41146        1.25934       -1.88434
C          6.51403        0.04145       -1.58891
O          6.71179       -1.06814       -2.46105
C          6.28464       -0.82849       -3.78740
C          6.58312       -2.07097       -4.60927
C          6.36348       -1.85636       -6.11741
C          5.98331       -3.14066       -6.83150
F          6.89837       -4.12328       -6.64321
F          4.78445       -3.61589       -6.37072
F          5.85174       -2.94466       -8.16248
N          4.82979       -0.55037       -3.77470
C          4.30717        0.06007       -2.68472
N          2.96526        0.21163       -2.59504
N          5.10541        0.48951       -1.72619
C          6.68840       -0.55829       -0.17778
C          6.13473        0.30908        0.95731
O          5.22817        1.14971        0.73435
N          6.61064        0.12064        2.20497
C          7.60251       -0.90610        2.56391
C          9.03456       -0.38099        2.67828
C          6.06615        0.97012        3.28714
C          6.69109        2.36529        3.34762
O          9.38838        0.05777       -2.53020
H          9.64992        6.38114        1.16244
H          9.50510        6.92135       -1.11144
H          8.10298        5.93347       -0.58183
H         10.71152        4.90697       -1.83249
H          9.13603        5.04246       -2.65328
H          9.52487        3.42990       -0.23606
H         10.72699        2.25282       -1.97786
H          9.40262        2.67604       -3.07841
H          9.12609        0.86764       -0.62233
H          7.22286        1.58872       -2.91857
H          7.08100        2.09486       -1.24925
H          6.80091        0.05326       -4.20244
H          5.95616       -2.89205       -4.22879
H          7.62465       -2.34799       -4.40692
H          7.26642       -1.45730       -6.59787
H          5.55126       -1.14369       -6.32521
H          4.22719       -1.21246       -4.25799
H          2.40394        0.21455       -3.43833
H          2.57669        0.69359       -1.79298
H          4.79961        0.94228       -0.81844
H          7.75096       -0.78727       -0.04475
H          6.15446       -1.52188       -0.17402
H          7.54670       -1.72568        1.83750
H          7.27776       -1.33373        3.52393
H          9.37276        0.06832        1.73378
H          9.71512       -1.20605        2.92747
H          9.12559        0.37758        3.46599
H          6.23187        0.42629        4.22648
H          4.98262        1.05041        3.12908
H          7.77150        2.32108        3.53393
H          6.23098        2.93668        4.16498
H          6.51864        2.91415        2.41358
H         10.35984        0.08019       -2.52480
