60

C          9.09730        6.93127        6.37148
C          8.73171        7.11190        4.89671
C          8.98446        5.85693        4.05497
C          8.62244        6.02428        2.57637
C          8.89234        4.77375        1.73397
C          8.53098        4.93812        0.25401
C          8.85317        3.69574       -0.58470
C          8.42025        3.77678       -2.05762
C          9.02727        4.93416       -2.87054
C         10.55799        4.88430       -2.93314
C         11.21784        5.92242       -3.86918
C         10.81264        7.36910       -3.51366
O         11.19562        7.64555       -2.19258
C         10.74919        8.93232       -1.71956
C         11.15146        9.09267       -0.26336
C         10.70209       10.44041        0.30673
C         10.91454        5.67927       -5.38691
C         12.25962        5.62894       -6.11936
N         13.24972        6.27695       -5.12712
C         12.74309        5.78512       -3.75915
C         14.59505        6.03072       -5.39310
C         15.75357        5.79483       -5.61369
H          8.90755        7.84605        6.94917
H         10.16102        6.67663        6.49003
H          8.51100        6.12115        6.82952
H          9.30660        7.95364        4.47373
H          7.66969        7.39726        4.81141
H          8.40950        5.01445        4.47715
H         10.04744        5.56977        4.14091
H          9.19030        6.87527        2.15759
H          7.55697        6.30049        2.49026
H          8.32907        3.92221        2.15264
H          9.95918        4.50099        1.82032
H          9.06746        5.81664       -0.14628
H          7.45548        5.17132        0.16338
H          8.35531        2.82216       -0.13421
H          9.93371        3.48104       -0.51599
H          7.32354        3.87047       -2.10323
H          8.66457        2.82395       -2.55640
H          8.70574        5.89270       -2.43534
H          8.60657        4.90043       -3.88966
H         10.87712        3.88095       -3.26653
H         10.96931        5.02542       -1.92247
H          9.72161        7.48663       -3.65988
H         11.28835        8.09336       -4.22328
H          9.65059        8.99861       -1.83278
H         11.19948        9.72886       -2.34388
H         12.24476        8.99080       -0.18148
H         10.71003        8.26808        0.31736
H         11.14871       11.28155       -0.24269
H         11.00176       10.53571        1.35777
H          9.60938       10.55242        0.26258
H         10.27712        6.47795       -5.78962
H         10.38019        4.73305       -5.53510
H         12.31658        6.18084       -7.06401
H         12.63774        4.61122       -6.27091
H         13.08281        7.29774       -5.15016
H         13.19649        6.39843       -2.97224
H         13.07961        4.74371       -3.67772
H         16.78788        5.59177       -5.81340
