60

C         16.34700       -7.93427       -0.68231
O         16.35939       -6.89591        0.28656
C         15.07732       -6.33119        0.49434
C         15.23158       -5.23130        1.53568
O         13.93836       -4.68347        1.78214
C         13.95355       -3.64982        2.74692
C         12.52468       -3.13822        2.87590
O         12.49273       -2.22839        3.98181
C         11.30349       -1.46315        4.08168
C         10.10041       -2.25442        4.62550
C         10.42655       -3.09387        5.87805
N          9.32123       -4.00273        6.20334
C          8.18012       -3.36386        6.81778
C          8.50664       -2.49296        8.07118
N          9.65780       -1.56431        7.72115
C         10.86071       -2.26903        7.10039
C         10.05976       -0.62422        8.83837
O         10.60958        0.46561        8.17659
C         11.19471        1.45706        9.06579
C         11.86907        2.50850        8.21283
C          8.83164       -3.33902        9.30405
O          9.95765       -3.58258        9.69722
O          7.68874       -3.77782        9.83498
C          7.79206       -4.69555       10.98782
C          7.87836       -6.13493       10.52336
H         17.37552       -8.30390       -0.76867
H         16.01188       -7.56437       -1.66884
H         15.68791       -8.76744       -0.37550
H         14.35945       -7.09363        0.85720
H         14.67005       -5.90820       -0.44511
H         15.92250       -4.45132        1.16459
H         15.66117       -5.65186        2.46471
H         14.62912       -2.82647        2.44497
H         14.30293       -4.02426        3.73039
H         11.84697       -3.99794        3.03262
H         12.21169       -2.62349        1.94960
H         11.03270       -1.02682        3.10253
H         11.55401       -0.62310        4.74957
H          9.71899       -2.95410        3.86867
H          9.28014       -1.53387        4.79707
H         11.29785       -3.71432        5.62320
H          9.64317       -4.81148        6.73385
H          7.44069       -4.11785        7.11509
H          7.68399       -2.71218        6.08006
H          7.64551       -1.85032        8.30301
H          9.29484       -0.92686        6.99351
H         11.27364       -2.90699        7.88804
H         11.57438       -1.47586        6.84975
H         10.76739       -1.15590        9.49533
H          9.13950       -0.37257        9.40073
H         11.91524        0.95190        9.73231
H         10.39180        1.89084        9.68670
H         12.68263        2.07366        7.61810
H         12.29656        3.28599        8.85942
H         11.15049        2.98741        7.53519
H          6.87404       -4.49414       11.55114
H          8.66541       -4.39581       11.58016
H          7.01698       -6.40359        9.89822
H          7.87641       -6.79525       11.40140
H          8.80536       -6.32388        9.96680
