75

C          1.31690        0.23900       -0.65717
C          2.62248        0.79276       -0.12454
O          3.22404       -0.21403        0.72556
C          4.45032        0.20275        1.29102
N          4.98578       -0.89952        2.08218
C          4.25923       -1.37259        3.10216
N          4.63991       -2.20052        4.09936
N          3.60058       -2.51752        4.94576
C          2.58354       -1.85355        4.46436
N          2.94343       -1.13026        3.34268
C          1.18598       -1.83123        4.99460
O          0.36900       -1.37818        3.93590
C         -1.03427       -1.37359        4.27111
C         -1.82363       -0.89562        3.06561
C         -3.33670       -0.95993        3.30703
C         -4.16761       -0.49165        2.10773
C         -5.67665       -0.60005        2.34698
C         -6.53187       -0.12560        1.16810
C         -8.03665       -0.25843        1.42458
C         -8.91423        0.24765        0.27533
C        -10.41460        0.09742        0.54857
C        -11.30919        0.65639       -0.56231
C        -12.80734        0.49591       -0.27890
C        -13.70190        1.08980       -1.36997
C          6.33050       -1.44425        1.80419
C          7.46164       -0.72802        2.54381
C          8.83411       -1.33144        2.22493
C          9.98755       -0.50236        2.80863
N          9.98688        0.85350        2.24318
H          0.84342        0.97772       -1.31731
H          0.61601        0.01635        0.15943
H          1.48388       -0.67841       -1.23624
H          2.45992        1.71630        0.46118
H          3.32330        1.02901       -0.94505
H          4.30155        1.09732        1.92927
H          5.20229        0.44304        0.52024
H          5.56567       -2.56891        4.28734
H          2.30852       -0.69795        2.66910
H          1.12986       -1.15709        5.87395
H          0.91621       -2.84714        5.33809
H         -1.19817       -0.71496        5.14473
H         -1.33629       -2.39828        4.55797
H         -1.55663       -1.52210        2.19854
H         -1.52244        0.13642        2.82098
H         -3.59657       -0.34939        4.18896
H         -3.62043       -1.99587        3.56096
H         -3.89366       -1.08654        1.21863
H         -3.90659        0.55376        1.86633
H         -5.94462       -0.01797        3.24620
H         -5.93111       -1.64867        2.58172
H         -6.26178       -0.69883        0.26368
H         -6.29049        0.92796        0.94149
H         -8.29677        0.29119        2.34637
H         -8.27749       -1.31672        1.62866
H         -8.65412       -0.29206       -0.65231
H         -8.68297        1.31000        0.08107
H        -10.66174        0.60185        1.49954
H        -10.65045       -0.96997        0.70557
H        -11.06345        0.16061       -1.51830
H        -11.07964        1.72655       -0.71123
H        -13.04412        0.96934        0.68924
H        -13.03895       -0.57548       -0.15369
H        -13.52301        2.16896       -1.48944
H        -14.76692        0.95426       -1.13655
H        -13.51303        0.61532       -2.34466
H          6.47281       -1.37427        0.71620
H          6.30952       -2.52212        2.03575
H          7.28406       -0.76161        3.63302
H          7.47532        0.33743        2.26672
H          8.96216       -1.39749        1.13000
H          8.90368       -2.36433        2.60397
H         10.93320       -1.05348        2.65332
H          9.85425       -0.41203        3.89829
H         10.41476        0.85667        1.31597
H         10.54423        1.48481        2.81767
