59

C          1.89921        0.96916        2.74328
C          1.76580        0.37510        1.33544
C          2.84635        0.78408        0.30767
C          2.82386        2.30624        0.02925
O          1.53149        2.84458       -0.19012
C          1.14000        2.73441       -1.55520
N          2.00489        3.55314       -2.39892
C          3.33665        3.40472       -2.16418
N          4.27966        3.96382       -2.93954
C          4.15001        4.44057       -4.32662
C          4.46753        5.92913       -4.47517
C          4.40493        6.37666       -5.93894
N          4.67113        7.80369       -6.05776
C          4.60221        8.27362       -7.45420
C          4.96895        9.73120       -7.59743
C          4.02398       10.69054       -7.98084
C          4.36734       12.03328       -8.15807
C          5.68665       12.43856       -7.94505
C          6.64913       11.50544       -7.55529
C          6.29115       10.16512       -7.38390
O          7.21349        9.21170       -6.99863
N          3.69473        2.63236       -1.12520
N          1.55381        4.90858       -2.82852
N          0.30352        4.63683       -3.52654
N          1.19702        5.74478       -1.75955
C          4.23412        0.32453        0.76882
O          5.20372        0.58221       -0.27343
H          1.07105        0.61930        3.37263
H          1.85477        2.06717        2.73931
H          2.82969        0.66798        3.24334
H          0.78425        0.64515        0.92214
H          1.77661       -0.72384        1.39877
H          2.62762        0.26243       -0.63982
H          3.20695        2.84640        0.91163
H          0.11523        3.11031       -1.65549
H          1.18218        1.69210       -1.90880
H          5.22218        3.93811       -2.56013
H          3.13091        4.22167       -4.66220
H          4.83727        3.83864       -4.94298
H          5.47766        6.12756       -4.07735
H          3.75914        6.52240       -3.88039
H          3.39102        6.18883       -6.33521
H          5.09487        5.74885       -6.54930
H          5.61096        8.00428       -5.70750
H          3.56898        8.13041       -7.80725
H          5.25687        7.66864       -8.11811
H          2.99497       10.36728       -8.15232
H          3.61164       12.75674       -8.46294
H          5.97339       13.48170       -8.08083
H          7.68366       11.81582       -7.38471
H          8.08788        9.63130       -6.94874
H          4.58863        2.12219       -1.11565
H          0.57106        4.33994       -4.47122
H         -0.12328        5.56291       -3.62256
H          2.04258        6.11683       -1.32997
H          0.60069        5.28892       -1.05775
H          4.19482       -0.75502        0.98488
H          4.52949        0.85130        1.69200
H          6.06693        0.24558        0.01235
