75

C          0.73208        0.13343        0.76065
C          2.25647        0.02473        0.84954
C          2.79421       -1.34698        0.42641
C          4.31969       -1.46210        0.50937
C          4.85825       -2.83107        0.08088
C          6.38632       -2.93458        0.13568
C          6.92398       -4.29597       -0.31778
C          8.45416       -4.38072       -0.32769
C          8.98218       -5.73706       -0.80850
C         10.51382       -5.80278       -0.87277
C         11.00923       -7.15167       -1.36203
O         12.44871       -7.11537       -1.45693
C         12.98610       -8.35862       -1.86646
C         14.47704       -8.28330       -1.82038
C         15.38997       -8.51531       -2.80859
N         16.64069       -8.37077       -2.24138
C         16.53544       -8.04849       -0.93631
N         15.21277       -7.98075       -0.66799
C         14.58361       -7.68910        0.66141
O         13.92453       -8.79206        1.16975
C         14.77921       -9.85847        1.64471
C         13.89987      -10.95921        2.21386
C         12.97101      -11.60159        1.17982
C         17.69576       -7.86171       -0.01656
C         18.78741       -6.91746       -0.56281
C         18.31437       -5.47726       -0.78185
C         19.43334       -4.55071       -1.27350
C         18.97488       -3.10602       -1.48194
H          0.37987        1.12699        1.07033
H          0.23996       -0.60912        1.40635
H          0.37856       -0.03826       -0.26702
H          2.58202        0.23864        1.88172
H          2.71906        0.80432        0.22065
H          2.46790       -1.56218       -0.60658
H          2.33297       -2.12861        1.05573
H          4.64642       -1.24784        1.54223
H          4.77802       -0.67855       -0.11962
H          4.51732       -3.05043       -0.94630
H          4.41433       -3.61536        0.71893
H          6.73174       -2.72725        1.16372
H          6.82582       -2.14216       -0.49548
H          6.54373       -4.51617       -1.33079
H          6.51660       -5.08743        0.33551
H          8.84207       -4.17389        0.68498
H          8.85813       -3.58342       -0.97571
H          8.56625       -5.95262       -1.80785
H          8.60415       -6.53285       -0.14371
H         10.94193       -5.60102        0.12298
H         10.89454       -5.01915       -1.54731
H         10.58783       -7.38849       -2.35745
H         10.71296       -7.96191       -0.66873
H         12.68627       -8.61656       -2.90030
H         12.63675       -9.17651       -1.20563
H         15.25033       -8.76435       -3.85343
H         17.52614       -8.47241       -2.72877
H         13.83611       -6.90778        0.48313
H         15.38761       -7.31931        1.31758
H         15.46434       -9.45287        2.41124
H         15.38505      -10.24671        0.80366
H         13.31636      -10.54629        3.05062
H         14.56945      -11.71881        2.64674
H         12.25129      -10.87373        0.78173
H         12.39592      -12.42119        1.62830
H         13.53818      -12.01919        0.33427
H         18.12565       -8.85671        0.18854
H         17.33131       -7.48449        0.94728
H         19.20973       -7.32534       -1.49812
H         19.61905       -6.93470        0.15743
H         17.90267       -5.08342        0.16399
H         17.48026       -5.45740       -1.50641
H         19.84423       -4.94851       -2.21679
H         20.26362       -4.57465       -0.54879
H         18.16368       -3.04317       -2.22208
H         19.79992       -2.47794       -1.84187
H         18.60638       -2.66307       -0.54537
