64

C          3.00040        0.98309        1.09448
O          2.36911       -0.21763        0.62376
C          3.03676       -1.40355        0.74035
C          4.30642       -1.54173        1.31433
C          4.90219       -2.80327        1.38742
C          4.24897       -3.93402        0.89531
C          2.98340       -3.79283        0.32651
C          2.36208       -2.54157        0.23362
C          0.99521       -2.45273       -0.40351
N         -0.02784       -1.95099        0.54274
C         -0.61787       -0.80264        0.29153
S         -0.21306       -0.12335       -1.21474
C          0.85976       -1.56249       -1.68194
C          0.24055       -2.29672       -2.87728
C          1.15249       -3.38258       -3.46743
C          0.44774       -4.16015       -4.58389
C          1.32492       -5.26434       -5.19666
N          0.61576       -6.04926       -6.18997
C         -0.16613       -7.15469       -5.91934
C         -0.79766       -7.53280       -7.08932
C         -0.39406       -6.61897       -8.10318
C          0.47109       -5.71190       -7.52105
C         -1.51879       -0.13270        1.27434
C         -2.61660        0.74129        0.64953
C         -3.37973        1.50752        1.73933
S         -4.21523        2.98964        1.12325
C         -2.86793        4.12911        1.01249
S         -1.30537        3.81019        1.44858
N         -3.28195        5.36652        0.52243
C         -4.55050        5.73924        0.04967
C         -4.44350        7.05533       -0.29136
N         -3.15721        7.52985       -0.04731
C         -2.48720        6.52067        0.42959
H          3.93897        1.17726        0.55474
H          3.19373        0.93245        2.17639
H          2.28693        1.78743        0.88670
H          4.83401       -0.67435        1.70663
H          5.89094       -2.89583        1.83745
H          4.71840       -4.91492        0.95376
H          2.46379       -4.67061       -0.06474
H          0.69654       -3.47681       -0.67559
H         -0.15825       -2.42313        1.43672
H          1.83552       -1.13213       -1.94279
H          0.00014       -1.56349       -3.66303
H         -0.72179       -2.73809       -2.56664
H          1.47326       -4.08766       -2.68091
H          2.07633       -2.91571       -3.84853
H          0.13135       -3.47138       -5.38316
H         -0.47229       -4.62343       -4.19246
H          1.68094       -5.94869       -4.41079
H          2.21837       -4.82833       -5.66923
H         -0.19049       -7.58701       -4.92385
H         -1.45922       -8.38495       -7.20651
H         -0.68774       -6.63389       -9.14776
H          1.00746       -4.86694       -7.94122
H         -0.87089        0.51876        1.89146
H         -1.93838       -0.89361        1.95172
H         -3.30790        0.13187        0.05038
H         -2.14261        1.46627       -0.02783
H         -2.70269        1.84085        2.53950
H         -4.18393        0.90350        2.18310
H         -5.37700        5.04183       -0.01128
H         -5.21258        7.70070       -0.70421
H         -1.45053        6.50851        0.74848
