64

C          1.96109       -0.50008        0.76983
C          3.35550       -0.04415        0.33311
C          3.52138        1.47979        0.33682
C          4.91665        1.94491       -0.09166
C          5.06816        3.47016       -0.09926
C          6.47364        3.92959       -0.51056
C          6.57078        5.45325       -0.51661
S          8.25802        6.11323       -0.81127
C          8.38680        5.93409       -2.51107
N          7.51628        5.48102       -3.40376
N          8.12887        5.58149       -4.62097
C          9.32793        6.08344       -4.43006
O          9.56124        6.32888       -3.09327
C         10.37235        6.44404       -5.36262
C         11.55052        7.01491       -4.87453
C         12.52569        7.40851       -5.78668
N         12.36956        7.32216       -7.10053
N         11.23393        6.77351       -7.55863
C         10.24199        6.26732       -6.78039
C          9.12247        5.48911       -7.37714
C          9.37061        3.94630       -7.20308
C          8.43686        3.15405       -8.08422
C          8.93690        2.46632       -9.20020
C          8.07894        1.73881      -10.02983
C          6.71053        1.69682       -9.75399
C          6.20356        2.37848       -8.64208
C          7.06008        3.10319       -7.81245
C         11.21225        6.85471       -9.07703
C         11.24743        5.47751       -9.77262
O         12.14893        4.56898       -9.15965
C         10.12437        7.79619       -9.59464
H          1.87191       -1.59460        0.75040
H          1.18149       -0.09164        0.10952
H          1.73391       -0.16699        1.79341
H          3.57079       -0.42921       -0.67814
H          4.11524       -0.49324        0.99508
H          3.30145        1.86789        1.34688
H          2.76499        1.93002       -0.33003
H          5.14261        1.55122       -1.09789
H          5.67234        1.50635        0.58308
H          4.83162        3.86661        0.90329
H          4.32333        3.90866       -0.78536
H          6.71509        3.54304       -1.51235
H          7.22117        3.51537        0.18434
H          6.33385        5.87825        0.47074
H          5.90327        5.91753       -1.25431
H         11.70251        7.15722       -3.80619
H         13.47549        7.84101       -5.47101
H          8.99686        5.71279       -8.43651
H          8.18992        5.75016       -6.86165
H          9.21975        3.68779       -6.14616
H         10.41249        3.71295       -7.46004
H         10.01009        2.48112       -9.40543
H          8.48208        1.19813      -10.88698
H          6.03924        1.12898      -10.39882
H          5.13700        2.33871       -8.41777
H          6.65872        3.62275       -6.93892
H         12.18580        7.33005       -9.24894
H         11.50715        5.67645      -10.82612
H         10.26497        4.98907       -9.77907
H         13.05176        4.74550       -9.46754
H          9.10852        7.39320       -9.50597
H         10.31322        7.98463      -10.65992
H         10.16628        8.76238       -9.07666
