78

C         -1.67337        2.85496       -2.02469
C         -1.15674        1.63533       -1.25159
C          0.29077        1.23248       -1.60588
N          0.54251        0.81007       -3.01185
Si         0.26128       -0.95801       -3.45121
C         -0.46661       -1.04819       -5.17929
C          1.92102       -1.82696       -3.31487
C         -0.94415       -1.69391       -2.22520
C          1.13594        1.68251       -3.85454
N          1.12924        3.01002       -3.61486
N          1.76920        1.24963       -4.95911
C          2.18642        2.06862       -6.10312
C          2.23952        1.22124       -7.37734
C          2.70416        2.01059       -8.61118
C          4.18396        2.41694       -8.60595
C          4.59872        3.16222       -9.87910
C          6.09121        3.50287       -9.93888
C          6.48481        4.26768      -11.20661
C          7.98607        4.55147      -11.31897
C          8.36131        5.31104      -12.59545
C          9.86612        5.54835      -12.75782
C         10.21577        6.28407      -14.05430
C         11.72657        6.47348      -14.24749
N         12.06033        7.15838      -15.48725
C         12.20009        6.55405      -16.71811
C         12.38510        7.54295      -17.66758
C         12.34717        8.79250      -16.98854
C         12.14029        8.52510      -15.64712
C         -1.24249        1.86038        0.26431
H         -1.65861        2.70263       -3.11386
H         -1.10416        3.76801       -1.77328
H         -2.71531        3.06815       -1.75167
H         -1.80974        0.78622       -1.50576
H          0.58489        0.39056       -0.96255
H          0.98552        2.05023       -1.35792
H          0.27338       -0.98225       -5.98609
H         -1.22290       -0.26758       -5.34036
H         -0.97034       -2.02057       -5.28122
H          2.69057       -1.47060       -4.01494
H          1.78364       -2.90000       -3.51258
H          2.32926       -1.72631       -2.29932
H         -1.95492       -1.28018       -2.33264
H         -0.63420       -1.60522       -1.17651
H         -1.00661       -2.76837       -2.45484
H          0.44252        3.41939       -2.99376
H          1.69256        3.63544       -4.17513
H          2.01867        0.26671       -4.99324
H          3.16956        2.52645       -5.90172
H          1.45330        2.88014       -6.23457
H          1.23605        0.80646       -7.56068
H          2.91719        0.36391       -7.21558
H          2.06959        2.90565       -8.73282
H          2.51096        1.38947       -9.49942
H          4.80578        1.51154       -8.49149
H          4.41113        3.05349       -7.73281
H          4.00614        4.08945       -9.96784
H          4.33203        2.55026      -10.75827
H          6.67964        2.57064       -9.87680
H          6.37111        4.09644       -9.05048
H          5.92754        5.22008      -11.24599
H          6.15966        3.69297      -12.09156
H          8.53982        3.59663      -11.28609
H          8.32067        5.12521      -10.43674
H          7.83447        6.28103      -12.61245
H          7.98917        4.75197      -13.47171
H         10.39152        4.57710      -12.73238
H         10.24502        6.11987      -11.89222
H          9.72922        7.27286      -14.07234
H          9.81784        5.72877      -14.91923
H         12.23641        5.49754      -14.24878
H         12.15155        7.05303      -13.41366
H         12.16538        5.47318      -16.81135
H         12.54629        7.38166      -18.72860
H         12.47326        9.77715      -17.42722
H         12.05219        9.18820      -14.79227
H         -0.59662        2.69257        0.58422
H         -0.93915        0.96578        0.82599
H         -2.26969        2.10737        0.56261
