54

C          7.10522        3.98615        4.04636
O          6.72558        4.23789        2.69684
C          6.80532        3.08692        1.88191
C          6.30633        3.49690        0.50330
O          6.46904        2.36882       -0.37084
C          5.83384        2.48782       -1.62246
C          6.55002        3.42600       -2.61027
S          8.37811        3.31937       -2.51145
C          9.09451        1.69199       -3.21213
C          8.93244        1.48418       -4.74750
C          9.52116        0.12172       -5.18209
C          7.49864        1.59716       -5.28780
C         10.60997        1.87225       -2.87226
O         10.88006        2.27119       -1.54149
C          8.48746        0.58299       -2.34297
C          8.87037        4.62618       -3.69991
C          8.56621        6.03380       -3.16687
C          9.06801        6.33462       -1.74819
C         10.57743        6.16087       -1.54601
N         10.92605        6.47265       -0.16109
H          7.01242        4.93661        4.58352
H          8.14999        3.63303        4.11168
H          6.44399        3.23690        4.51702
H          6.18198        2.26290        2.28059
H          7.84786        2.71594        1.80755
H          6.89087        4.36793        0.15443
H          5.24228        3.78836        0.55076
H          4.79775        2.86298       -1.51885
H          5.77498        1.47351       -2.03717
H          6.39154        4.47877       -2.33291
H          6.19524        3.27780       -3.63502
H          9.53984        2.26402       -5.23809
H          8.91456       -0.71721       -4.81472
H         10.55635       -0.03430       -4.85613
H          9.51869        0.07147       -6.27827
H          6.78853        0.97456       -4.72498
H          7.47297        1.24745       -6.32758
H          7.12533        2.62867       -5.30056
H         11.05350        2.63728       -3.52797
H         11.10357        0.91975       -3.11802
H         10.94054        1.49300       -0.96653
H          7.48953        0.28465       -2.68328
H          8.41189        0.87759       -1.28835
H          9.13141       -0.30521       -2.40213
H          8.38588        4.43684       -4.66582
H          9.95200        4.47719       -3.81552
H          7.48604        6.23236       -3.23264
H          9.03424        6.72484       -3.88725
H          8.54786        5.71150       -1.00189
H          8.78966        7.37341       -1.51018
H         11.11476        6.76691       -2.30677
H         10.86743        5.11083       -1.71562
H         10.82272        7.47065        0.02861
H         11.89855        6.23596        0.03272
