57

C          2.05107       -1.40338       -1.35610
C          2.38463       -0.58808       -0.35107
C          2.89687       -1.10146        0.96136
N          4.40835       -0.91993        1.07546
C          4.80998        0.52934        1.30781
C          6.17340        0.84229        0.69708
C          6.64571        2.27524        0.99074
C          7.05819        2.50118        2.45893
N          7.65142        3.80725        2.66864
C          6.95292        4.98486        2.85068
C          7.86151        6.02603        2.86669
C          9.15535        5.46376        2.67734
C          8.99700        4.09667        2.55179
C          5.03796       -1.84669        2.10396
C          5.00746       -3.32082        1.69927
C          5.61238       -3.66139        0.32193
C          7.00947       -3.08175        0.04052
C          8.08412       -3.45124        1.07255
C          9.33562       -2.57225        0.92872
O          9.97600       -2.31060        2.20364
C          9.37046       -1.38792        2.99141
O          8.32121       -0.82478        2.68761
C         10.14663       -1.16636        4.23004
C          9.75497       -0.27311        5.14700
H          1.67929       -1.01461       -2.30391
H          2.11788       -2.49030       -1.26404
H          2.27688        0.49317       -0.46864
H          2.70005       -2.17538        1.05727
H          2.45966       -0.58449        1.82700
H          4.78988       -1.18828        0.15552
H          4.78252        0.67799        2.39547
H          4.03160        1.15816        0.85724
H          6.10501        0.70345       -0.39518
H          6.93206        0.14002        1.07604
H          5.87626        3.00928        0.70201
H          7.51952        2.48395        0.35723
H          7.78461        1.73210        2.76118
H          6.19421        2.40947        3.13645
H          5.87322        4.97938        2.96599
H          7.62273        7.07413        3.01449
H         10.09968        5.99771        2.65201
H          9.72292        3.30323        2.40268
H          4.49036       -1.67702        3.04098
H          6.06826       -1.49050        2.24376
H          3.98408       -3.72146        1.75360
H          5.55730       -3.84913        2.49255
H          4.92599       -3.33729       -0.48147
H          5.63999       -4.75808        0.23704
H          6.95893       -1.97978       -0.01464
H          7.32257       -3.40355       -0.96441
H          8.34876       -4.51549        0.99239
H          7.69468       -3.30740        2.08945
H          9.07858       -1.60601        0.47073
H         10.11673       -3.05324        0.32954
H         11.05471       -1.75825        4.34735
H          8.84463        0.31189        5.00674
H         10.33212       -0.10186        6.05480
