80

O          4.68637       -0.35301       -1.55935
C          4.63870       -1.18951       -0.65359
N          3.89704       -2.33496       -0.70330
C          3.04441       -2.82620       -1.72427
C          2.39425       -4.04459       -1.46587
C          1.54739       -4.60541       -2.41832
C          1.33811       -3.95727       -3.63902
C          1.98600       -2.74668       -3.89207
C          2.83887       -2.16973       -2.94812
C          5.42269       -1.01591        0.65672
C          6.54274        0.04321        0.56587
C          6.10188        1.47063        0.76692
C          5.38973        2.20811       -0.21142
C          5.04806        3.52885        0.03218
C          4.18232        4.34738       -0.87679
C          2.75887        4.46577       -0.27311
O          2.96172        5.01966        1.03181
C          1.97954        4.70238        2.03696
C          2.66603        4.76104        3.37899
C          3.09448        5.99099        3.90369
C          3.76084        6.04526        5.13049
C          3.99469        4.87093        5.85539
C          3.57130        3.64184        5.34192
C          2.91862        3.58928        4.10581
C          1.83093        5.31987       -1.12941
C          5.46995        4.06285        1.26423
N          6.10454        3.28073        2.14371
N          6.42855        2.00229        1.94645
C          6.55198        3.83144        3.44559
O          7.91906        4.08307        3.30100
C          8.68132        4.13777        4.47351
C          8.10342        4.52297        5.68620
C          8.87401        4.60763        6.85295
C          8.25593        5.03550        8.15905
C         10.23721        4.30164        6.75768
C         10.79718        3.92593        5.53747
C         10.04705        3.82555        4.35700
C         10.72281        3.38027        3.06758
C         10.21649        2.00835        2.57925
C         10.67481        4.44229        1.95297
H          3.96816       -2.94670        0.10514
H          2.55750       -4.55602       -0.51375
H          1.05100       -5.55218       -2.20463
H          0.67777       -4.39582       -4.38699
H          1.83242       -2.23619       -4.84345
H          3.34594       -1.23189       -3.15383
H          5.87901       -1.97568        0.94198
H          4.71652       -0.76275        1.46462
H          7.02718       -0.03578       -0.41847
H          7.29644       -0.16865        1.33414
H          5.10184        1.68912       -1.12852
H          4.12713        3.88767       -1.87158
H          4.59473        5.36162       -0.99295
H          2.34093        3.44511       -0.16693
H          1.57279        3.69232        1.85637
H          1.14499        5.42304        1.98346
H          2.89533        6.91147        3.35170
H          4.08093        7.00754        5.53190
H          4.49228        4.91663        6.82506
H          3.73924        2.72475        5.90822
H          2.58039        2.62814        3.71154
H          2.21586        6.34577       -1.20842
H          0.82542        5.35988       -0.69079
H          1.73561        4.90210       -2.14128
H          5.30055        5.09362        1.56187
H          6.34200        3.06961        4.20995
H          5.95172        4.73651        3.63123
H          7.04473        4.78508        5.73374
H          7.16461        5.12546        8.08063
H          8.64934        6.01076        8.48207
H          8.48009        4.31715        8.96006
H         10.86826        4.35811        7.64620
H         11.86197        3.68794        5.49013
H         11.78465        3.24878        3.33280
H          9.16284        2.05061        2.27181
H         10.30816        1.25135        3.37001
H         10.80993        1.67137        1.71722
H          9.65411        4.59586        1.57854
H         11.30253        4.12980        1.10643
H         11.05210        5.40897        2.31289
