81

C          1.03353       -0.04868        0.41190
C          2.54717        0.02224        0.20255
C          2.94397        0.48049       -1.20619
C          4.46298        0.56116       -1.39481
C          4.86288        1.01380       -2.78733
O          6.30149        1.11672       -2.82966
C          6.80218        1.54023       -4.06546
C          8.32040        1.65431       -3.85744
N          9.00799        2.15496       -5.04669
C          9.55087        1.48736       -6.10021
C          9.68194        0.00776       -6.20158
C         10.28642       -0.46556       -7.53155
C         10.44961       -1.98797       -7.57041
C         11.03846       -2.49464       -8.89151
C         11.24431       -4.01285       -8.91833
C         11.82532       -4.53040      -10.23858
C         12.06795       -6.04338      -10.24362
C         12.63665       -6.57315      -11.56432
C         12.91019       -8.08071      -11.54557
C         13.46164       -8.62428      -12.86810
C         13.75060      -10.12778      -12.82535
C         14.28018      -10.66746      -14.16007
N         14.56106      -12.09855      -14.12946
C         15.76075      -12.67060      -13.77178
C         15.60319      -14.05056      -13.76402
C         14.25945      -14.32062      -14.12170
C         13.63736      -13.09786      -14.33704
N          9.95931        2.38636       -7.00801
N          9.68243        3.60037       -6.55424
N          9.09663        3.47636       -5.37981
C          8.72937        4.61061       -4.49477
C          8.96291        5.92655       -5.17409
C          7.97572        6.79683       -5.38857
H          0.78692       -0.37700        1.43028
H          0.56438       -0.75640       -0.28734
H          0.56097        0.93251        0.25670
H          2.99551       -0.96587        0.40008
H          2.99138        0.70884        0.94282
H          2.49243        1.46743       -1.40849
H          2.51110       -0.21081       -1.95005
H          4.92057       -0.42122       -1.19633
H          4.89359        1.26277       -0.66215
H          4.42310        2.00086       -3.02846
H          4.52410        0.29489       -3.55713
H          6.37825        2.52020       -4.37096
H          6.58166        0.82151       -4.88133
H          8.75034        0.67197       -3.62634
H          8.53957        2.31621       -3.00967
H          8.68878       -0.44958       -6.04834
H         10.30375       -0.34136       -5.35706
H         11.26134        0.02235       -7.68211
H          9.64626       -0.12978       -8.36192
H          9.47120       -2.47018       -7.39792
H         11.09759       -2.30854       -6.73564
H         12.00330       -1.99166       -9.07696
H         10.37723       -2.19730       -9.72374
H         10.28159       -4.51646       -8.72132
H         11.91201       -4.30326       -8.08819
H         12.77512       -4.00816      -10.44890
H         11.14507       -4.26450      -11.06657
H         11.12141       -6.56609      -10.01944
H         12.75700       -6.30301       -9.42066
H         13.57141       -6.03544      -11.80177
H         11.93632       -6.33731      -12.38477
H         11.97949       -8.61792      -11.29262
H         13.62105       -8.31145      -10.73305
H         14.38499       -8.07870      -13.13089
H         12.74295       -8.40940      -13.67848
H         12.83480      -10.67966      -12.55744
H         14.48672      -10.34899      -12.03542
H         15.20826      -10.14930      -14.44432
H         13.55301      -10.48183      -14.96526
H         16.62860      -12.05331      -13.56219
H         16.37891      -14.77495      -13.53868
H         13.79314      -15.29478      -14.22655
H         12.61901      -12.86055      -14.62838
H          9.34913        4.51310       -3.58736
H          7.67297        4.49150       -4.21607
H          9.99239        6.16190       -5.44833
H          6.94025        6.57882       -5.11929
H          8.17236        7.77013       -5.83640
