71

C          3.50356        0.95409        0.85191
O          2.78269       -0.28686        0.87204
C          3.09806       -1.20009        1.83257
C          4.15042       -1.06848        2.74916
C          4.38055       -2.06232        3.70320
C          3.57621       -3.20156        3.75985
C          2.53726       -3.34809        2.84100
C          2.29364       -2.36285        1.88363
N          1.17433       -2.51441        0.98689
C         -0.17438       -2.23636        1.49924
O         -0.58440       -0.95061        1.05816
C         -0.76857       -0.95919       -0.32612
N          0.30483       -1.71602       -1.02483
C          1.31303       -2.30761       -0.35302
N          2.39688       -2.73983       -1.01496
C          3.37831       -3.74398       -0.58195
C          3.94647       -4.45801       -1.80872
C          5.10378       -5.39572       -1.45691
C          5.65810       -6.11970       -2.69653
N          6.84047       -6.90633       -2.40680
C          8.13869       -6.44088       -2.47423
C          8.97629       -7.43178       -1.99892
C          8.15830       -8.53349       -1.62117
C          6.84659       -8.18136       -1.87731
C          0.19024       -1.76890       -2.48199
C          0.90576       -0.61880       -3.20458
O          0.58193       -0.80150       -4.57364
C          1.11261        0.14120       -5.48267
C          0.30811        1.44258       -5.63913
C         -1.13420        1.37410       -6.26159
C         -2.33972        0.69492       -5.50571
C         -2.75843        1.33206       -4.14454
F         -3.99159        0.87072       -3.81746
F         -1.89104        0.92135       -3.15675
F         -3.40397        0.82918       -6.34338
F         -2.10099       -0.63242       -5.33445
F         -1.52319        2.66312       -6.48806
F         -1.01541        0.73640       -7.45875
F          0.22102        2.11639       -4.44032
F          1.03216        2.23041       -6.49186
H          3.05564        1.53918        0.04232
H          4.57188        0.79426        0.64089
H          3.38684        1.49538        1.80227
H          4.78614       -0.18503        2.73053
H          5.20116       -1.93758        4.40973
H          3.75903       -3.97325        4.50605
H          1.90341       -4.23618        2.85309
H         -0.13652       -2.21914        2.59150
H         -0.87117       -3.01562        1.14436
H         -0.75980        0.08927       -0.65720
H         -1.72897       -1.42713       -0.61955
H          2.57230       -2.31604       -1.92022
H          2.87425       -4.45391        0.08672
H          4.18441       -3.26364       -0.00441
H          4.30484       -3.70103       -2.53053
H          3.13868       -5.01434       -2.31249
H          4.77983       -6.14530       -0.71769
H          5.92148       -4.82587       -0.98813
H          5.92113       -5.38771       -3.47572
H          4.89107       -6.78221       -3.12700
H          8.35393       -5.45441       -2.87291
H         10.05891       -7.37768       -1.95042
H          8.49277       -9.48655       -1.22476
H          5.92110       -8.73284       -1.74422
H         -0.87836       -1.71646       -2.73684
H          0.56066       -2.73936       -2.84095
H          2.00616       -0.65382       -3.06040
H          0.55488        0.35084       -2.81790
H          1.14867       -0.34832       -6.46495
H          2.13623        0.45444       -5.20958
H         -2.76939        2.43148       -4.17898
