107

C          1.50229        5.80901        2.80514
C          3.00237        5.52324        2.69807
C          3.51009        5.50041        1.25249
C          5.00823        5.20799        1.12325
C          5.49752        5.18767       -0.32799
C          6.99436        4.89804       -0.48036
C          7.45488        4.88740       -1.94060
C          8.95413        4.63329       -2.12627
C          9.38074        4.66995       -3.59585
C         10.88995        4.51563       -3.80999
C         11.28310        4.67701       -5.29139
C         12.63789        5.33025       -5.60788
C         13.96220        4.55823       -5.25484
C         13.84200        3.33075       -4.35182
C         15.17116        2.61224       -4.12851
O         14.86957        1.45134       -3.37363
C         15.97479        0.82197       -2.76578
C         15.48493        0.02011       -1.55700
C         15.11444        0.81277       -0.24898
C         13.94720        1.86911       -0.21420
C         12.51023        1.35815       -0.54149
F         11.62842        2.33033       -0.16192
F         12.36457        1.16801       -1.88121
F         13.91559        2.32737        1.06897
F         14.26013        2.93022       -1.01872
F         14.80568       -0.11337        0.70318
F         16.23965        1.48091        0.14281
F         14.41737       -0.76300       -1.89295
F         16.50993       -0.80987       -1.18584
N         14.78056        5.62417       -4.63453
C         14.04449        6.72965       -4.38631
N         14.50793        7.79741       -3.73827
N         12.81779        6.62998       -4.91053
C         11.92472        7.77994       -5.07873
C         11.14746        8.15166       -3.80429
C         10.63603        9.59647       -3.87586
S         10.32413       10.32580       -2.24970
C         11.95900       10.84874       -1.74818
S         13.33782       10.64680       -2.70711
N         11.98453       11.46145       -0.55129
C         10.77400       11.71739        0.24941
C         10.47397       10.61852        1.27726
C          9.22362       10.93773        2.10513
C          8.92043        9.87270        3.16146
C         13.24756       11.93382        0.04411
C         13.58040       13.38692       -0.31255
C         14.84973       13.86822        0.40024
C         15.21768       15.31295        0.05434
H          1.16579        5.81612        3.85090
H          0.91261        5.04825        2.27212
H          1.24951        6.78656        2.36806
H          3.22895        4.55594        3.17757
H          3.56474        6.28159        3.26935
H          3.28510        6.46983        0.77283
H          2.94196        4.74536        0.68089
H          5.23433        4.23747        1.59915
H          5.57967        5.96281        1.69211
H          5.26590        6.15750       -0.80328
H          4.92314        4.43295       -0.89383
H          7.23153        3.92656       -0.01271
H          7.57360        5.65267        0.08114
H          7.19317        5.85364       -2.40837
H          6.88422        4.12320       -2.49652
H          9.22858        3.66095       -1.68300
H          9.52661        5.39233       -1.56274
H          9.05053        5.62624       -4.04228
H          8.84674        3.88488       -4.15811
H         11.21063        3.53764       -3.42490
H         11.41564        5.26636       -3.19707
H         10.52025        5.29686       -5.79161
H         11.24183        3.71330       -5.82162
H         12.65630        5.53505       -6.69207
H         14.44459        4.25601       -6.19729
H         13.15191        2.61186       -4.81705
H         13.42269        3.60032       -3.37437
H         15.88701        3.24453       -3.56222
H         15.65292        2.34635       -5.09049
H         16.72960        1.54907       -2.41724
H         16.46922        0.10229       -3.44321
H         12.27707        0.42540       -0.00541
H         15.56425        5.38694       -4.03473
H         15.46913        7.81372       -3.42143
H         13.91862        8.61049       -3.46963
H         11.24543        7.54852       -5.90980
H         12.53537        8.64076       -5.39773
H         11.81693        8.05869       -2.93808
H         10.31671        7.45414       -3.63361
H          9.67271        9.67420       -4.39962
H         11.36435       10.25059       -4.37762
H          9.92152       11.86088       -0.43074
H         10.92754       12.68141        0.75711
H         11.34157       10.49787        1.94697
H         10.34455        9.65693        0.75569
H          8.35808       11.04692        1.43048
H          9.35164       11.91698        2.59601
H          8.75567        8.88722        2.70141
H          8.01770       10.12672        3.73255
H          9.74784        9.77065        3.87843
H         14.04790       11.26403       -0.29584
H         13.14361       11.82014        1.13396
H         12.73467       14.04040       -0.04052
H         13.70526       13.46631       -1.40363
H         15.68811       13.20095        0.13937
H         14.71362       13.77274        1.49077
H         15.42428       15.42750       -1.01938
H         16.11336       15.63497        0.60173
H         14.40450       16.00655        0.31288
