58

C          7.73747       -0.39590      -10.24918
O          7.01103        0.43611       -9.35270
C          7.12794        1.80748       -9.67618
C          6.29317        2.62587       -8.71611
O          6.87351        2.56739       -7.40468
C          6.15585        3.31124       -6.43492
C          6.76316        2.96500       -5.07844
N          8.21696        3.09952       -5.16463
C          9.05523        3.14207       -4.12042
N          8.61432        2.97807       -2.86632
N         10.38412        3.36936       -4.30663
C         11.33443        2.72794       -3.38538
C         11.86798        3.60019       -2.20937
N         10.72980        4.20200       -1.48025
N         12.50664        2.66336       -1.28445
N         12.68084        4.68620       -2.76858
C         10.89921        3.91723       -5.58396
C         10.31700        5.26747       -6.02467
C         10.47813        6.40905       -5.00457
C          9.94053        7.72066       -5.53123
C          8.62831        8.12556       -5.24626
C          8.11754        9.32177       -5.75689
C          8.91778       10.13396       -6.56393
C         10.22857        9.74435       -6.85303
C         10.73439        8.54774       -6.34039
H          7.58004       -1.43084       -9.92440
H          8.81941       -0.16888      -10.22487
H          7.37665       -0.28318      -11.28744
H          6.76459        2.00628      -10.70462
H          8.18732        2.13533       -9.63118
H          5.26365        2.22721       -8.67937
H          6.25417        3.67359       -9.06765
H          5.08458        3.04016       -6.42645
H          6.23381        4.39797       -6.63474
H          6.49049        1.93047       -4.81006
H          6.37062        3.64891       -4.31118
H          8.59283        2.92272       -6.09517
H          7.67690        2.64493       -2.68250
H          9.22920        3.35993       -2.10827
H         12.18704        2.37661       -3.98682
H         10.85524        1.84615       -2.94112
H         10.85032        4.06827       -0.47647
H         10.66193        5.20035       -1.68200
H         13.11930        2.00889       -1.77310
H         13.08888        3.16556       -0.61084
H         13.01547        5.29965       -2.02171
H         13.51133        4.31057       -3.23111
H         10.77923        3.16969       -6.39046
H         11.97753        4.03783       -5.42844
H          9.25672        5.17554       -6.30022
H         10.84260        5.53458       -6.95498
H         11.54053        6.50858       -4.73613
H          9.94707        6.14690       -4.07578
H          8.00157        7.50256       -4.60206
H          7.09729        9.62430       -5.51661
H          8.52519       11.07127       -6.95952
H         10.86203       10.37958       -7.47363
H         11.76455        8.25820       -6.56289
