51

O          9.75006       -2.85144       -1.46829
C         10.68803       -3.35763       -0.52169
C         10.15788       -3.24980        0.90600
N          8.87807       -3.96627        1.00146
C          8.13644       -3.77998        2.24519
C          7.46140       -2.39900        2.35201
C          6.56071       -2.12410        1.11254
C          6.04936       -0.72253        1.11971
N          6.95836        0.18128        0.73062
N          6.61429        1.45530        0.75118
C          5.42695        1.96158        1.11773
C          4.45312        1.04424        1.52140
C          4.73786       -0.31787        1.53844
C          3.69235       -1.29053        2.00453
C          3.58225       -1.31894        3.55126
C          2.72191       -2.47948        4.05593
C          3.35530       -3.84988        3.84133
O          4.51689       -4.03539        3.53013
O          2.55285       -4.91986        4.02738
C          5.20390        3.45094        1.06121
C          6.41750        4.31109        0.71840
O          7.51020        3.87935        0.36920
O          6.11953        5.59915        0.83821
C          7.18656        6.54260        0.51153
O          6.75252       -2.27326        3.57227
H          8.90559       -3.28188       -1.24463
H         11.60634       -2.76474       -0.63132
H         10.94605       -4.41166       -0.74893
H          9.97829       -2.18764        1.13078
H         10.91742       -3.61787        1.62486
H          9.03225       -4.96369        0.84752
H          8.76214       -3.89081        3.15342
H          7.35325       -4.55354        2.29514
H          8.23106       -1.61105        2.38013
H          5.74901       -2.86195        1.08581
H          7.18823       -2.27334        0.22233
H          7.33569        2.15470        0.45945
H          3.46957        1.41041        1.82031
H          3.92706       -2.29591        1.63737
H          2.72053       -1.00311        1.57361
H          3.14662       -0.37289        3.90508
H          4.59023       -1.38755        3.98171
H          1.72101       -2.46665        3.59260
H          2.55622       -2.37141        5.14121
H          1.65093       -4.64362        4.27126
H          4.78963        3.79646        2.02068
H          4.42083        3.67015        0.31586
H          6.75337        7.52808        0.69694
H          7.47315        6.42884       -0.54014
H          8.05275        6.36371        1.15844
H          6.07609       -2.98460        3.61131
