71

C          0.78598        0.67683       -0.26958
C          2.30855        0.56212       -0.15852
C          2.77192       -0.72213        0.53855
C          4.29525       -0.86313        0.62048
C          4.75861       -2.15809        1.29639
C          6.27982       -2.33761        1.29279
C          6.75002       -3.65330        1.92199
C          8.26261       -3.86807        1.81041
C          8.74651       -5.20222        2.38811
C         10.24698       -5.43030        2.17369
C         10.75082       -6.77202        2.72647
C         12.23261       -6.95871        2.43195
O         12.81821       -8.13002        3.07027
C         12.50218       -9.36721        2.48991
C         13.25409      -10.41818        3.25615
N         13.96608       -9.97553        4.30528
N         14.68469      -10.69889        5.14647
C         14.71606      -12.00748        4.92203
C         14.03135      -12.61285        3.83004
C         13.28742      -11.78918        2.99103
C         13.93883      -14.13110        3.67948
O         13.18657      -14.67204        4.46515
C         14.70082      -14.80016        2.58151
C         15.49904      -12.78242        5.97265
O         15.55034      -12.42484        7.12380
O         16.07203      -13.85677        5.41453
C         16.77273      -14.77596        6.33605
C         15.80190      -15.77093        6.95218
C         16.53078      -16.79089        7.83990
C         15.56736      -17.77402        8.51013
H          0.48729        1.60620       -0.77355
H          0.31031        0.66940        0.72247
H          0.36380       -0.16185       -0.84334
H          2.70673        1.43502        0.38595
H          2.75547        0.60713       -1.16640
H          2.35544       -1.59465        0.00441
H          2.34335       -0.76012        1.55568
H          4.71678        0.00347        1.15945
H          4.71755       -0.81715       -0.39908
H          4.29273       -3.01937        0.78557
H          4.38501       -2.18590        2.33495
H          6.75285       -1.48981        1.81860
H          6.64479       -2.28649        0.25168
H          6.22849       -4.49521        1.43313
H          6.44742       -3.68583        2.98318
H          8.79042       -3.03924        2.31372
H          8.55521       -3.80917        0.74724
H          8.18198       -6.02847        1.92151
H          8.51623       -5.24645        3.46658
H         10.81372       -4.60917        2.64518
H         10.46882       -5.37185        1.09404
H         10.15941       -7.59065        2.28175
H         10.59337       -6.81504        3.81625
H         12.81994       -6.12454        2.83806
H         12.42952       -7.01682        1.34706
H         12.79570       -9.41870        1.42124
H         11.42076       -9.60706        2.54145
H         13.94558       -8.95885        4.47163
H         12.72579      -12.19075        2.14629
H         14.47986      -14.33204        1.60969
H         14.45409      -15.86665        2.54850
H         15.77930      -14.66708        2.75883
H         17.28021      -14.16706        7.09554
H         17.51745      -15.26203        5.69416
H         15.25540      -16.29195        6.14984
H         15.05404      -15.22798        7.55094
H         17.10780      -16.25629        8.61206
H         17.26715      -17.34556        7.23512
H         14.85048      -17.25019        9.15862
H         16.11128      -18.49704        9.13145
H         14.99051      -18.34160        7.76553
