45

F          2.38557        1.11981        0.03637
C          2.28200       -0.23262        0.39016
C          2.78840       -1.09055       -0.76436
C          4.24613       -0.75996       -1.07416
N          4.82795       -1.60083       -2.19654
C          4.35692       -1.10006       -3.55034
C          4.63494       -2.02550       -4.74177
C          4.09849       -3.45848       -4.67982
C          2.56716       -3.64180       -4.42140
Br         1.45496       -2.63163       -5.66013
F          2.22911       -4.93513       -4.44790
F          2.30899       -3.18937       -3.14362
Br         4.60182       -4.40024       -6.30503
F          4.71523       -4.10675       -3.59724
C          6.34529       -1.71106       -2.10387
C          6.82412       -2.43103       -0.84462
C          6.20647       -3.82498       -0.61110
C          6.73880       -4.46647        0.65115
C          6.11701       -4.23189        1.88537
C          6.62964       -4.78784        3.05913
C          7.77380       -5.58796        3.00960
C          8.39874       -5.83094        1.78375
C          7.88404       -5.27308        0.61146
H          1.22533       -0.44909        0.60183
H          2.87302       -0.38138        1.30804
H          2.13697       -0.92361       -1.63360
H          2.68577       -2.14934       -0.47543
H          4.86872       -0.94357       -0.19107
H          4.37242        0.29085       -1.36610
H          4.46690       -2.56124       -2.08401
H          4.86845       -0.14298       -3.71830
H          3.28531       -0.89664       -3.45296
H          5.71136       -2.11142       -4.94003
H          4.20373       -1.53213       -5.62302
H          6.73513       -0.68554       -2.16594
H          6.66305       -2.26034       -2.99796
H          6.68523       -1.80673        0.05049
H          7.91452       -2.53635       -0.95170
H          6.40950       -4.47209       -1.47836
H          5.10673       -3.75544       -0.52065
H          5.21320       -3.61775        1.92954
H          6.13036       -4.60504        4.01112
H          8.17267       -6.02867        3.92345
H          9.28529       -6.46403        1.73827
H          8.37174       -5.47652       -0.34474
