42

O          6.23848        1.53205       -2.98612
C          5.74791        2.24407       -1.85685
C          6.87841        2.23351       -0.82809
O          6.49181        2.88117        0.39602
C          5.76044        2.05124        1.30294
C          6.63812        1.58124        2.46930
C          6.99125        2.67370        3.50909
C          5.70850        3.08089        4.33546
S          5.42493        4.87541        4.15419
C          6.68624        5.02562        2.99966
N          7.35234        3.92348        2.78273
C          6.99280        6.30183        2.28592
C          7.08468        7.55230        3.18500
C          8.07333        7.46371        4.33970
Br         9.88411        6.94983        3.75389
N          8.15267        2.30221        4.29396
C          8.56830        3.27616        5.30642
C          8.16305        0.93476        4.82577
H          5.57638        1.56043       -3.69284
H          4.84409        1.76407       -1.43460
H          5.49041        3.28987       -2.10314
H          7.73985        2.79387       -1.21595
H          7.20730        1.19617       -0.64193
H          5.35964        1.16518        0.78717
H          4.88915        2.63075        1.65361
H          7.57303        1.16921        2.06138
H          6.12476        0.76292        2.99571
H          5.83708        2.85781        5.40125
H          4.81081        2.56729        3.97448
H          8.09326        3.88145        2.08308
H          6.19825        6.45405        1.53681
H          7.93417        6.16929        1.73428
H          6.09547        7.78696        3.61412
H          7.34474        8.39727        2.53262
H          7.79094        6.71742        5.09050
H          8.19306        8.43363        4.83131
H          8.71282        4.26791        4.86158
H          9.53841        2.96108        5.70801
H          7.86664        3.36086        6.16116
H          8.07183        0.19245        4.02685
H          7.37068        0.74822        5.57787
H          9.12998        0.77166        5.31546
