45

C          0.79118        7.14805        2.29213
C          2.32177        7.11186        2.26889
C          2.90111        5.73740        2.62325
C          4.43342        5.68710        2.60762
C          4.99765        4.30813        2.96648
C          6.52946        4.23334        2.93997
C          7.05436        2.83108        3.27436
C          8.55893        2.66182        3.18567
O          9.18933        3.43403        4.25162
C         10.58643        3.34110        4.24524
P         11.12124        4.51694        5.54324
C         10.25885        4.17120        7.12344
C         10.57350        5.22158        8.07146
C         10.86085        6.12675        8.81947
C         12.93202        4.58539        5.72238
C         13.56513        5.13296        4.46793
C         14.25800        4.39034        3.60081
H          0.40853        8.14589        2.03855
H          0.39892        6.88457        3.28562
H          0.36360        6.43648        1.57008
H          2.71838        7.86472        2.97134
H          2.68247        7.41161        1.27033
H          2.50569        4.98450        1.91873
H          2.53595        5.43535        3.62082
H          4.83063        6.44116        3.31029
H          4.79824        5.98319        1.60837
H          4.58871        3.55688        2.26840
H          4.63565        4.01522        3.96759
H          6.94611        4.96899        3.64816
H          6.89352        4.52833        1.94013
H          6.61719        2.09916        2.57454
H          6.72037        2.52198        4.27862
H          8.95083        3.02456        2.21782
H          8.85031        1.60413        3.30914
H         11.05768        3.65712        3.29301
H         10.97278        2.33135        4.49851
H         10.67712        5.79421        5.13386
H         10.57573        3.17465        7.47338
H          9.18377        4.11766        6.88522
H         11.08645        6.91506        9.50986
H         13.27541        3.56567        5.95567
H         13.12298        5.22021        6.60320
H         13.44073        6.20617        4.29764
H         14.41875        3.32036        3.75025
H         14.71397        4.83727        2.71812
