47

C          3.42453       -0.81021       -3.00784
C          3.30293       -0.90600       -4.53108
C          3.60275        0.41799       -5.24914
C          5.04672        0.84187       -5.13586
O          6.01269        0.09496       -5.16563
O          5.16490        2.19484       -5.01220
C          6.50904        2.71570       -4.97712
C          7.14896        2.59011       -3.56578
C          8.55830        2.06740       -3.62179
C          8.82052        0.74595       -3.98641
C         10.15291        0.30306       -4.05436
C         11.14163        1.26839       -3.73643
N         10.77531        2.50819       -3.40284
N          9.52462        2.95894       -3.32785
C         11.81537        3.53850       -3.14380
C         12.44407        4.09215       -4.43898
C         11.40084        4.66700       -5.40357
C         13.49776        5.13648       -4.04505
N         10.50240       -0.96508       -4.40066
N         11.86695       -1.28757       -4.43990
N          9.57707       -1.93453       -4.80345
H          3.17693       -1.76748       -2.53112
H          2.74317       -0.05028       -2.59841
H          4.44691       -0.54583       -2.69779
H          2.28334       -1.21406       -4.80373
H          3.97760       -1.68384       -4.91775
H          2.96065        1.23341       -4.88919
H          3.40198        0.31552       -6.32949
H          6.40335        3.76795       -5.26132
H          7.11388        2.19458       -5.73200
H          6.53716        1.89753       -2.97118
H          7.14762        3.55750       -3.05070
H          7.97857        0.09903       -4.23522
H         12.20284        1.03579       -3.75490
H         12.57894        3.07777       -2.50293
H         11.30071        4.32774       -2.58314
H         12.96230        3.25481       -4.94008
H         10.82899        5.48091       -4.93454
H         10.68413        3.90897       -5.74928
H         11.89704        5.07498       -6.29357
H         13.03455        5.99971       -3.54486
H         14.01344        5.50912       -4.93916
H         14.25809        4.71967       -3.36998
H         12.09337       -1.62003       -5.38181
H         12.03678       -2.06624       -3.79659
H          8.99733       -1.59832       -5.57669
H          8.97826       -2.22371       -4.02586
