42

F          1.99389        0.41563        0.69065
C          2.57811        0.94961       -0.47018
C          3.17344       -0.18367       -1.29572
C          4.25621       -0.91262       -0.48881
N          4.66019       -2.20117       -1.08197
C          4.39138       -3.47637       -0.71901
N          5.00011       -4.30747       -1.59603
N          5.63867       -3.57306       -2.48039
N          5.43183       -2.30522       -2.19706
C          6.20859       -1.18892       -2.85617
O          7.15803       -0.67154       -2.01065
C          8.38612       -1.46363       -1.85970
C          9.25467       -1.49093       -3.10948
C          9.70051       -0.11004       -3.59509
C          3.52479       -3.94151        0.38285
C          2.05146       -4.11723       -0.12303
C          1.12513       -4.66380        0.99213
N          0.72308       -3.54608        1.85272
O          1.55114       -2.87770       -0.57502
H          3.33551        1.68200       -0.14789
H          1.79233        1.46944       -1.03595
H          3.58031        0.24615       -2.22353
H          2.38448       -0.90017       -1.56128
H          3.86499       -1.16428        0.50386
H          5.16984       -0.31447       -0.36353
H          5.49425       -0.39859       -3.11423
H          6.59124       -1.67588       -3.76627
H          8.12062       -2.48217       -1.53075
H          8.89860       -0.95809       -1.03106
H          8.75046       -2.04542       -3.91879
H         10.13141       -2.10754       -2.85265
H          8.84653        0.51803       -3.88364
H         10.35700       -0.19955       -4.46939
H         10.25681        0.42648       -2.81323
H          3.54091       -3.23825        1.22761
H          3.92342       -4.90908        0.71887
H          2.06695       -4.82024       -0.96988
H          1.60962       -5.49312        1.53188
H          0.23203       -5.07025        0.50014
H          1.25620       -3.49854        2.71891
H         -0.26133       -3.59251        2.10451
H          1.10031       -2.51526        0.23252
