70

C          2.86399        2.86482       -0.09298
C          3.31753        1.42226       -0.02038
O          3.78227        1.03025       -1.32972
C          4.25564       -0.29754       -1.37378
C          4.68225       -0.54570       -2.78617
N          4.77703        0.45666       -3.71529
C          5.17146       -0.08834       -4.88290
N          5.31933       -1.39589       -4.62305
N          5.00791       -1.70032       -3.32633
C          5.65139       -2.46725       -5.56642
O          4.59682       -2.53001       -6.48202
C          4.74532       -3.59798       -7.45024
C          3.58088       -3.51027       -8.42057
C          3.61361       -4.60997       -9.48932
C          2.46595       -4.48529      -10.49877
C          2.48827       -5.56187      -11.58818
C          1.36167       -5.41160      -12.61622
C          1.39956       -6.46745      -13.72575
C          0.28824       -6.30443      -14.76774
C          0.33958       -7.34753      -15.88979
C         -0.76407       -7.16877      -16.93537
C          5.40015        0.65582       -6.15284
C          4.37082        1.77290       -6.38129
O          4.36868        2.61836       -5.23688
C          3.64398        3.84659       -5.42314
C          3.58902        4.59618       -4.10992
O          4.90070        4.96456       -3.72895
C          4.92319        5.79500       -2.57315
H          2.48080        3.18533        0.88467
H          2.05890        2.98762       -0.83002
H          3.69789        3.52496       -0.36540
H          2.49005        0.75483        0.28162
H          4.13968        1.29616        0.70711
H          3.47921       -1.03553       -1.09529
H          5.11834       -0.45343       -0.69516
H          4.53680        1.45228       -3.62268
H          5.76336       -3.37858       -4.95517
H          6.61841       -2.22795       -6.05050
H          4.75629       -4.56720       -6.91869
H          5.71291       -3.48420       -7.97473
H          3.59796       -2.51969       -8.90427
H          2.64054       -3.56783       -7.84934
H          3.57005       -5.59984       -9.00370
H          4.57652       -4.57562      -10.02790
H          2.50751       -3.48840      -10.97208
H          1.50200       -4.52517       -9.96212
H          2.42635       -6.55946      -11.11933
H          3.46156       -5.53287      -12.10891
H          1.41600       -4.40607      -13.06985
H          0.38643       -5.45674      -12.10017
H          1.33390       -7.47363      -13.27554
H          2.38054       -6.42771      -14.23144
H          0.34734       -5.29343      -15.20895
H         -0.69476       -6.35629      -14.26677
H          0.27147       -8.35700      -15.44979
H          1.32555       -7.30029      -16.38265
H         -1.76284       -7.24397      -16.47983
H         -0.70108       -7.93225      -17.72273
H         -0.69765       -6.18418      -17.42208
H          5.36902       -0.04896       -6.99358
H          6.40918        1.09892       -6.11332
H          3.36471        1.34595       -6.55420
H          4.66307        2.33535       -7.28492
H          2.61498        3.63272       -5.76445
H          4.15506        4.45461       -6.18987
H          3.11092        3.96795       -3.32928
H          2.94714        5.48852       -4.25253
H          5.97396        6.03382       -2.37336
H          4.49640        5.27975       -1.69310
H          4.36326        6.73267       -2.73855
