87

Br         3.84095       -2.55698       -0.54865
C          4.13181       -1.18491        0.81936
C          4.79427        0.04714        0.21900
C          5.04877        1.12200        1.30061
C          5.64520        2.37951        0.76600
N          6.90917        2.45412        0.19254
C          7.19493        3.71864       -0.19632
N          6.11627        4.46185        0.11165
C          5.15644        3.65590        0.70579
C          5.99363        5.92631       -0.02955
C          6.38249        6.64748        1.26624
C          6.01453        8.13997        1.24424
C          4.52191        8.44231        1.01570
C          3.55771        7.68724        1.93901
C          2.08114        8.01348        1.69304
C          1.12523        7.08294        2.44596
C         -0.35748        7.36309        2.18165
C         -1.29407        6.32010        2.80115
C         -2.77939        6.59176        2.54160
C         -3.70571        5.49057        3.06812
C         -5.19258        5.76426        2.81918
C         -6.11517        4.64035        3.30434
C         -7.59934        4.92103        3.05465
C          8.44028        4.18685       -0.85561
C          8.34991        4.22067       -2.40571
C          9.47271        5.07581       -3.01842
P          9.15085        6.85808       -2.82173
O          8.51368        7.24826       -1.52755
O         10.60577        7.44484       -3.10033
C         10.89468        8.87599       -2.98374
C         12.38918        9.04063       -2.81124
O          8.24899        7.20968       -4.10503
C          7.06537        8.06095       -4.03024
C          7.40150        9.51876       -4.27992
H          4.75059       -1.65986        1.58959
H          3.14214       -0.96316        1.23456
H          4.15693        0.46482       -0.57409
H          5.74138       -0.24973       -0.25849
H          5.70267        0.71363        2.08950
H          4.10316        1.38876        1.79430
H          7.54511        1.67107        0.07439
H          4.20970        4.05859        1.04610
H          4.94870        6.11860       -0.30421
H          6.63901        6.25737       -0.85339
H          7.46731        6.54195        1.41689
H          5.89255        6.15003        2.11791
H          6.61580        8.64684        0.47358
H          6.32944        8.56757        2.20880
H          4.24940        8.23415       -0.03434
H          4.36918        9.52607        1.13828
H          3.81587        7.89064        2.99280
H          3.68990        6.59676        1.81162
H          1.87070        7.94501        0.61082
H          1.88270        9.06200        1.97138
H          1.32469        7.14349        3.53002
H          1.34788        6.03798        2.15890
H         -0.53088        7.40112        1.09162
H         -0.61521        8.36635        2.56219
H         -1.11617        6.26491        3.88955
H         -1.03366        5.32262        2.40304
H         -2.94243        6.71331        1.45604
H         -3.05923        7.55745        2.99741
H         -3.53604        5.35387        4.15053
H         -3.42941        4.53025        2.59716
H         -5.35758        5.92979        1.73976
H         -5.47775        6.70927        3.31417
H         -5.94795        4.47365        4.38208
H         -5.82946        3.69794        2.80629
H         -7.92596        5.83461        3.57331
H         -8.23113        4.09523        3.40980
H         -7.80541        5.06012        1.98285
H          9.27508        3.54351       -0.54129
H          8.65961        5.20306       -0.49607
H          7.36852        4.61463       -2.71226
H          8.40577        3.19631       -2.80136
H          9.57398        4.87539       -4.09377
H         10.44521        4.85310       -2.55543
H         10.34027        9.27680       -2.12222
H         10.53571        9.36516       -3.90159
H         12.73642        8.54885       -1.89361
H         12.63529       10.10925       -2.74311
H         12.93313        8.61805       -3.66547
H          6.59417        7.92332       -3.04609
H          6.39672        7.66543       -4.80586
H          8.00729        9.93619       -3.46484
H          6.47309       10.10417       -4.34103
H          7.94277        9.64143       -5.22701
