39

F          1.59511       -0.44615       -0.16174
C          1.85926        0.24148       -1.37349
C          3.13194        1.06452       -1.24960
N          4.39817        0.29971       -1.18037
C          4.87607       -0.03909        0.04359
N          6.19032       -0.27706        0.19366
C          6.83488       -0.90607        1.34995
C          8.24318       -1.36184        0.96721
C          8.99140       -2.00592        2.15153
C         10.34444       -2.39879        1.78604
C         11.46416       -2.70850        1.45192
N          4.06638       -0.13891        1.10905
Si         5.25384       -0.23312       -2.72657
C          6.91789        0.63952       -2.85160
C          5.42263       -2.09315       -2.63793
C          4.17408        0.30124       -4.15797
H          0.99923        0.89942       -1.56340
H          1.92397       -0.52386       -2.15878
H          3.05986        1.72306       -0.37128
H          3.18092        1.72394       -2.12667
H          6.80197        0.08376       -0.53313
H          6.22493       -1.76692        1.66874
H          6.88829       -0.19460        2.19365
H          8.82600       -0.49773        0.60974
H          8.18855       -2.08166        0.13665
H          8.43662       -2.88903        2.51139
H          9.03266       -1.29954        2.99821
H         12.45888       -2.99106        1.17652
H          3.06318       -0.26047        0.97136
H          4.44683       -0.24124        2.04125
H          7.73002        0.16526       -2.28033
H          6.85452        1.69921       -2.56729
H          7.23825        0.60883       -3.90406
H          6.00999       -2.42356       -1.77148
H          5.93243       -2.45901       -3.54066
H          4.43775       -2.57760       -2.59102
H          4.07949        1.39216       -4.24424
H          3.17016       -0.14142       -4.14581
H          4.66724       -0.05017       -5.07663
