58

C          1.16732        0.81142        0.43875
O          2.50242        0.44216       -0.00750
C          2.97580        1.10291       -1.06872
O          2.36392        1.96260       -1.68605
C          4.39533        0.66474       -1.40461
C          4.76112        1.02352       -2.84437
N          4.67989        2.47508       -3.08101
C          5.72790        2.91360       -3.78880
N          5.87020        4.16536       -4.24675
C          7.02372        4.64234       -4.96550
C          7.78345        5.68085       -4.41662
C          8.88608        6.16595       -5.12243
C          9.23494        5.60487       -6.35470
C          8.47011        4.56714       -6.89478
C          7.35084        4.08844       -6.20924
N          6.61929        1.92841       -3.97262
C          6.22944        0.69552       -3.25625
C          6.38761       -0.54610       -4.13409
C          5.95026       -1.84030       -3.43591
C          6.25140       -3.06202       -4.30600
S          5.59849       -4.54003       -3.48059
C          6.47473       -5.86132       -4.33374
S          7.62186       -5.56367       -5.50165
N          6.09166       -7.09339       -3.91763
C          5.12556       -7.37157       -2.85062
C          5.81236       -8.16183       -1.73110
O          6.40327       -9.35628       -2.22674
C          7.36086       -9.06929       -3.24854
C          6.72823       -8.31704       -4.41890
H          0.97523        0.17907        1.30904
H          0.43814        0.61552       -0.35612
H          1.14054        1.87282        0.71235
H          4.49573       -0.41507       -1.23377
H          5.08005        1.16341       -0.69911
H          4.06238        0.51575       -3.53233
H          3.78445        2.94410       -2.95003
H          5.16452        4.84312       -3.97241
H          7.51198        6.10306       -3.44804
H          9.47702        6.98028       -4.70326
H         10.10021        5.98443       -6.89809
H          8.73004        4.14076       -7.86366
H          6.72355        3.30958       -6.64490
H          7.55696        2.10985       -4.31620
H          6.85549        0.59498       -2.35147
H          7.44577       -0.63150       -4.43052
H          5.81137       -0.39916       -5.06213
H          4.87028       -1.80056       -3.21538
H          6.46730       -1.94366       -2.46782
H          7.32982       -3.21481       -4.45642
H          5.78758       -2.97293       -5.29887
H          4.29732       -7.96364       -3.27468
H          4.70778       -6.43890       -2.45353
H          5.07611       -8.46737       -0.97504
H          6.57804       -7.52301       -1.24736
H          7.75230      -10.03816       -3.58472
H          8.19469       -8.47214       -2.83143
H          5.95493       -8.94004       -4.89789
H          7.47835       -8.03216       -5.16594
