65

F          1.42114        1.00504       -0.15382
C          2.75131        0.60019       -0.01943
C          3.09607       -0.37513       -1.13759
C          4.53869       -0.87985       -1.01284
C          4.94974       -1.97506       -2.01592
C          4.77928       -1.50969       -3.47479
C          5.25716       -2.45873       -4.57382
O          4.91615       -1.84574       -5.79754
C          5.34135       -2.58435       -6.94397
C          4.90706       -1.80760       -8.18675
O          5.23388       -2.51915       -9.37611
C          6.38826       -2.48961       -1.69917
N          6.25602       -3.94924       -1.80601
C          4.95732       -4.30994       -1.74792
N          4.52002       -5.56344       -1.68534
C          3.11406       -5.97390       -1.57982
O          3.17910       -7.36104       -1.49797
C          1.89105       -7.98441       -1.26881
C          2.08990       -9.48558       -1.16764
C          0.77488      -10.22120       -0.87664
C          0.94360      -11.74203       -0.78429
C         -0.35994      -12.47581       -0.45255
C         -0.21654      -14.00105       -0.42224
C         -1.50753      -14.72882       -0.02903
C         -1.37435      -16.25379       -0.04686
N          4.16550       -3.22494       -1.76748
H          2.85927        0.13412        0.97397
H          3.38248        1.50294       -0.05939
H          2.93094        0.12940       -2.10062
H          2.38084       -1.21300       -1.08167
H          4.70161       -1.28086        0.00069
H          5.24061       -0.03846       -1.13442
H          5.30470       -0.54873       -3.58909
H          3.71579       -1.29587       -3.66280
H          4.77058       -3.45450       -4.49284
H          6.35183       -2.62997       -4.51988
H          4.88325       -3.59150       -6.95394
H          6.44238       -2.71169       -6.93014
H          5.34818       -0.79669       -8.17116
H          3.81361       -1.69263       -8.17970
H          6.16322       -2.35483       -9.59636
H          6.69607       -2.20194       -0.68211
H          7.12864       -2.11002       -2.41374
H          7.00142       -4.57819       -1.52712
H          5.17807       -6.33897       -1.66962
H          2.55186       -5.63502       -2.47713
H          2.65793       -5.52090       -0.67449
H          1.21260       -7.72698       -2.10293
H          1.46030       -7.57610       -0.33555
H          2.82135       -9.69450       -0.37056
H          2.52917       -9.85366       -2.10851
H          0.03673       -9.98569       -1.66278
H          0.34480       -9.84496        0.06785
H          1.70270      -11.98047       -0.01903
H          1.34668      -12.12200       -1.73922
H         -1.13403      -12.19818       -1.18942
H         -0.73497      -12.12457        0.52501
H          0.58783      -14.28124        0.28079
H          0.11440      -14.35540       -1.41454
H         -2.31906      -14.42171       -0.71048
H         -1.81697      -14.39642        0.97640
H         -1.11544      -16.62029       -1.05137
H         -2.31102      -16.74297        0.25280
H         -0.58683      -16.59510        0.64145
H          3.18851       -3.28489       -2.03630
