75

C          8.54185       -5.45287        2.38303
C          8.19475       -4.06764        1.83346
C          8.67132       -3.85834        0.39254
C          8.32991       -2.47723       -0.17577
C          8.80985       -2.28681       -1.61823
C          8.45657       -0.91917       -2.21194
C          8.95024       -0.75744       -3.65512
C          8.53196        0.57565       -4.29348
C          9.08823        0.77919       -5.68675
N          8.65314       -0.33845       -6.66426
C          8.75390        0.28496       -8.05555
C          8.87635        1.81490       -7.73381
O          8.57314        1.90330       -6.31496
C         10.19325        2.50482       -8.07532
C          9.98605        4.01679       -8.23396
O          8.89987        4.52598       -8.42179
O         11.16924        4.64595       -8.18951
C         11.18783        6.09613       -8.43875
C         11.85277        6.80772       -7.27396
C         12.04465        8.30128       -7.56773
C         12.73752        9.05406       -6.42770
C         12.96279       10.53851       -6.73188
C         13.66928       11.28349       -5.59796
C          9.86453       -0.37474       -8.87267
C          9.70412       -1.89094       -9.00626
O          8.37355       -2.18132       -9.38270
C          8.16178       -3.57033       -9.70905
C          6.75355       -3.71582      -10.25671
O          6.57824       -3.06256      -11.50600
H          8.18709       -5.57621        3.41494
H          9.62900       -5.62074        2.38260
H          8.08374       -6.24822        1.77654
H          8.63883       -3.29135        2.47868
H          7.10362       -3.91381        1.88007
H          8.22763       -4.63749       -0.25238
H          9.76379       -4.01242        0.34570
H          8.77556       -1.69635        0.46415
H          7.23794       -2.32245       -0.13027
H          8.37344       -3.07998       -2.25120
H          9.90359       -2.43133       -1.65948
H          8.88983       -0.11813       -1.59016
H          7.36319       -0.77502       -2.18145
H          8.55540       -1.60473       -4.24736
H         10.04996       -0.85102       -3.67435
H          8.88932        1.41920       -3.68378
H          7.43394        0.66948       -4.33792
H         10.19566        0.73748       -5.70300
H          7.68040       -0.59756       -6.45655
H          9.22687       -1.18872       -6.58286
H          7.79220        0.08481       -8.53984
H          8.07031        2.37274       -8.22982
H         10.57922        2.15086       -9.04405
H         10.98403        2.30926       -7.33715
H         10.15697        6.43298       -8.60417
H         11.76482        6.22061       -9.36635
H         12.83028        6.34045       -7.07331
H         11.24020        6.67718       -6.36723
H         11.06566        8.76743       -7.77201
H         12.63775        8.41733       -8.49126
H         13.70886        8.57532       -6.21240
H         12.13837        8.95627       -5.50563
H         11.99154       11.01715       -6.94118
H         13.55298       10.63118       -7.65897
H         13.08523       11.23892       -4.66682
H         13.81891       12.34283       -5.84583
H         14.65762       10.84740       -5.39031
H         10.85755       -0.15706       -8.44959
H          9.83742        0.07799       -9.87442
H          9.95953       -2.41063       -8.05188
H         10.42708       -2.26962       -9.75157
H          8.29175       -4.19434       -8.80411
H          8.89869       -3.88406      -10.46915
H          6.02297       -3.35994       -9.50552
H          6.55447       -4.78247      -10.43303
H          6.69530       -2.10981      -11.36728
