36

C          0.77248        3.08157       -2.56571
C          2.26045        2.83778       -2.29721
C          2.63468        3.11906       -0.85245
O          4.05658        2.90311       -0.70131
C          4.51370        3.15377        0.61275
C          6.00462        2.92057        0.63907
C          6.89719        3.97057        0.84388
C          8.27412        3.75301        0.84605
C          8.75459        2.46079        0.62705
C          7.84553        1.43889        0.42113
N          6.50684        1.66472        0.43149
C          5.60772        0.48285        0.27555
C          5.33122       -0.18200        1.62790
C          4.34742       -1.36215        1.48069
C          4.07103       -1.98447        2.76649
C          3.86233       -2.47692        3.85079
H          0.53259        2.87121       -3.61521
H          0.49169        4.12529       -2.36585
H          0.13455        2.43665       -1.94478
H          2.87384        3.47851       -2.94906
H          2.52498        1.79619       -2.53826
H          2.08800        2.45253       -0.15767
H          2.39696        4.16316       -0.57568
H          4.00383        2.50744        1.35666
H          4.32517        4.19894        0.91759
H          6.49046        4.96974        0.99419
H          8.96358        4.58212        1.00585
H          9.82022        2.23902        0.60756
H          8.14891        0.40867        0.24197
H          6.11661       -0.20589       -0.41171
H          4.69708        0.83482       -0.22186
H          4.91129        0.55007        2.33360
H          6.27097       -0.54326        2.07258
H          4.76066       -2.11437        0.78738
H          3.40398       -1.01058        1.02913
H          3.66596       -2.92739        4.80170
