31

N          3.21346       -1.66201        1.23182
C          2.39338       -1.09147        2.31523
C          3.00882       -1.37347        3.69602
C          4.53689       -1.19453        3.77230
C          4.99859        0.12985        3.18304
N          6.49012        0.23768        3.05182
Si         7.16827        1.71425        1.98954
C          6.65752        3.24869        2.90596
C          9.00025        1.40314        1.89102
C          6.29948        1.45469        0.35670
Br         7.38728        0.18107        4.78685
H          2.80831       -1.42633        0.32514
H          3.20575       -2.68340        1.27975
H          1.34888       -1.44992        2.32318
H          2.33774       -0.00374        2.14375
H          2.78605       -2.40845        3.99719
H          2.51316       -0.73090        4.43949
H          5.02258       -2.00499        3.20373
H          4.86123       -1.28577        4.81888
H          4.64932        1.00506        3.74702
H          4.63864        0.19139        2.14214
H          6.82005       -0.64073        2.62371
H          7.08845        3.29650        3.91413
H          5.56660        3.34994        2.97701
H          7.02989        4.12009        2.34648
H          9.51032        1.55626        2.84975
H          9.42650        2.11674        1.16911
H          9.23400        0.39460        1.52188
H          5.23117        1.70236        0.39880
H          6.40931        0.43015       -0.02581
H          6.76712        2.12693       -0.37918
