77

C          0.40345        0.24101        1.15392
C          1.91227        0.36660        1.37745
C          2.54726       -0.90341        1.95521
C          4.05926       -0.78975        2.16926
C          4.69848       -2.06976        2.71644
C          6.21159       -1.94911        2.91577
C          6.86082       -3.21812        3.47848
C          8.33099       -3.00467        3.84816
C          9.01089       -4.26086        4.41301
C         10.45300       -4.01666        4.87911
O         11.29227       -5.19674        4.78576
C         10.98853       -6.04338        5.84577
N         10.63468       -5.03972        7.00617
C         10.66581       -3.64764        6.37130
C          9.71002       -2.69991        7.08275
C          9.92346       -1.23663        6.68270
O          8.92488       -0.50471        7.36487
C          8.72319        0.80682        6.87973
C          7.39402        1.34357        7.41633
C          6.05916        0.78391        6.79684
C          5.61444       -0.71390        6.98995
C          5.39747       -1.20892        8.45419
F          4.68190       -2.36815        8.39763
F          6.60160       -1.49028        9.02915
F          4.41959       -0.81958        6.34631
F          6.49585       -1.54528        6.35475
F          5.04399        1.53771        7.30463
F          6.12561        0.99363        5.44809
F          7.32333        1.19862        8.77262
F          7.37848        2.68361        7.13702
C         12.16045       -6.92734        6.21844
C         12.57203       -7.87536        5.08094
C         13.79684       -8.70866        5.48157
C         14.24136       -9.64396        4.35405
S         15.71865      -10.55451        4.88342
O         16.82255       -9.62978        4.99996
O         15.36251      -11.44505        5.96364
Cl        16.05222      -11.71767        3.19326
H         -0.01908        1.16278        0.73091
H         -0.12559        0.03552        2.09653
H          0.17008       -0.57942        0.45906
H          2.11737        1.21509        2.05261
H          2.40741        0.61510        0.42314
H          2.33781       -1.75217        1.28036
H          2.05889       -1.15377        2.91350
H          4.27062        0.04573        2.86013
H          4.54305       -0.52136        1.21336
H          4.48194       -2.90927        2.03322
H          4.22700       -2.33104        3.67981
H          6.41607       -1.10650        3.59776
H          6.69139       -1.68722        1.95687
H          6.77226       -4.04098        2.74867
H          6.30700       -3.54202        4.37674
H          8.37988       -2.17982        4.57454
H          8.89662       -2.66661        2.96321
H          9.05784       -5.03032        3.62664
H          8.38504       -4.68385        5.21930
H         10.93894       -3.27181        4.23488
H         10.05781       -6.61623        5.68084
H         11.31180       -5.11617        7.77424
H          9.70314       -5.24319        7.38981
H         11.70662       -3.31107        6.48393
H          9.85449       -2.76797        8.17270
H          8.66228       -2.97025        6.88115
H          9.82521       -1.10278        5.58898
H         10.93733       -0.89444        6.97075
H          8.69357        0.83884        5.77634
H          9.50482        1.50397        7.23191
H          4.85507       -0.47359        9.06787
H         11.89084       -7.51549        7.11171
H         13.01359       -6.27967        6.48519
H         12.79448       -7.28438        4.17999
H         11.72802       -8.53786        4.82798
H         13.57003       -9.30450        6.37907
H         14.62947       -8.03726        5.74294
H         14.53444       -9.10417        3.44349
H         13.48933      -10.40532        4.10724
