62

C          1.68820        2.69886        0.91922
C          2.87994        1.94963        0.36133
O          3.38141        1.05494        1.39770
P          4.21294       -0.26867        1.06621
O          4.58300       -0.96890        2.32525
O          3.34269       -1.11702        0.01173
C          2.08918       -1.73809        0.45027
C          2.29748       -3.19737        0.80818
C          5.65719        0.18786        0.05458
C          6.66380       -0.97300        0.01478
C          8.07531       -0.55596       -0.43691
C          9.23145       -1.46386        0.03694
C          8.97774       -2.98161       -0.05334
C         10.11377       -3.64857        0.74407
N         10.69072       -2.48440        1.59265
C          9.76278       -1.26747        1.48129
C          8.78601       -1.24940        2.66840
C          8.28251        0.17820        2.93626
C          7.09192        0.23002        3.89643
S          6.56174        1.94643        4.04273
O          7.50263        2.67938        4.86662
O          6.21143        2.41047        2.71972
O          5.17978        1.78985        4.86812
C         11.26432       -4.25730       -0.06127
C         10.95456       -5.52308       -0.84597
C          9.83440       -6.44099       -0.57732
O          9.79733       -5.52628       -1.69172
H          1.30273        3.39808        0.16440
H          1.97262        3.27371        1.80967
H          0.88110        2.00672        1.19267
H          3.69395        2.63952        0.08915
H          2.60341        1.35969       -0.52694
H          1.40599       -1.62157       -0.40165
H          1.68047       -1.16963        1.29939
H          2.71519       -3.75282       -0.04213
H          1.33196       -3.65232        1.07123
H          2.97225       -3.29592        1.66775
H          6.08589        1.06476        0.56626
H          5.34229        0.50696       -0.94886
H          6.28044       -1.76682       -0.64336
H          6.68652       -1.41109        1.02121
H          8.28867        0.47517       -0.11407
H          8.11289       -0.52405       -1.53589
H         10.09187       -1.23004       -0.61677
H          8.96794       -3.34371       -1.08756
H          8.00861       -3.24273        0.39103
H          9.72945       -4.37559        1.47088
H         11.62045       -2.24221        1.22715
H         10.81689       -2.76210        2.57334
H         10.41563       -0.38406        1.54604
H          9.31021       -1.61001        3.57187
H          7.94496       -1.93850        2.50479
H          7.97486        0.65006        1.99476
H          9.11427        0.78425        3.32874
H          7.34100       -0.11309        4.91020
H          6.21750       -0.32039        3.50779
H          5.34379        2.11818        5.77334
H         12.09964       -4.50477        0.61727
H         11.64464       -3.50348       -0.77527
H         11.84804       -5.94832       -1.31833
H          9.11402       -6.23102        0.21977
H          9.93453       -7.49604       -0.84496
