49

C          2.79930       -0.04065       -1.64123
C          3.80397        1.06725       -1.96820
C          4.38775        1.72546       -0.70772
C          5.34807        2.84531       -1.06808
O          5.87021        3.50810        0.15164
C          7.02606        3.07027        0.62524
O          7.74275        2.19697        0.17023
C          7.40950        3.83513        1.89653
S          9.09636        3.27299        2.31731
C         10.12866        4.08819        1.09303
C         10.24947        5.47511        1.00269
C         11.11318        5.96934        0.01830
N         11.80790        5.18857       -0.81945
C         11.66704        3.86187       -0.70917
C         10.83762        3.24757        0.23720
C          9.42453        4.23779        3.83513
C         10.92237        4.23282        4.17033
O         11.45277        5.17363        4.70806
O         11.48358        3.07973        3.78247
C         12.93549        2.92479        4.01622
C         13.21909        2.31045        5.37623
C         14.72491        2.07100        5.57273
C         15.05133        1.46566        6.94008
H          2.40685       -0.49838       -2.55852
H          1.94347        0.34977       -1.07225
H          3.26235       -0.83912       -1.04310
H          3.31602        1.83597       -2.59014
H          4.62513        0.65554       -2.57749
H          4.91561        0.96786       -0.10580
H          3.57474        2.13004       -0.08409
H          4.84925        3.66199       -1.60415
H          6.20719        2.48712       -1.64951
H          6.76221        3.55290        2.74039
H          7.37415        4.92408        1.76476
H          9.71939        6.16677        1.65735
H         11.25004        7.04772       -0.09360
H         12.24330        3.25077       -1.40803
H         10.74217        2.16383        0.28969
H          8.85820        3.72757        4.62899
H          9.07187        5.27039        3.74270
H         13.39831        3.91435        3.90577
H         13.25495        2.27188        3.19412
H         12.67220        1.35818        5.46755
H         12.84445        2.98117        6.16564
H         15.26390        3.02516        5.45329
H         15.09688        1.40607        4.77557
H         14.72592        2.12477        7.75767
H         16.13182        1.30672        7.05130
H         14.55641        0.49321        7.07706
