65

C          0.68471        0.13574       -0.31147
C          2.21428        0.09318       -0.31157
C          2.78835       -1.01597        0.57556
C          4.31888       -1.07154        0.57741
C          4.89151       -2.17956        1.46649
C          6.42186       -2.24490        1.45693
C          6.99286       -3.36046        2.33768
C          8.52282       -3.43422        2.31663
C          9.09245       -4.56579        3.17768
C         10.62292       -4.63533        3.15951
C         11.18890       -5.78685        3.99624
C         12.72244       -5.83194        4.00777
C         13.26345       -7.02143        4.80899
C         14.79128       -7.15488        4.95339
C         15.20938       -8.35008        5.83007
C         14.74416       -9.73366        5.36334
C         15.33045      -10.86336        6.21973
C         14.89050      -12.25181        5.75311
C         15.46120       -5.84804        5.45811
N         15.99573       -5.12761        4.29833
C         16.13556       -5.79884        3.17373
S         15.54147       -7.39217        3.23012
C         16.75391       -5.20703        1.95637
H          0.30256        0.94278       -0.95142
H          0.29125        0.29996        0.70285
H          0.26075       -0.81043       -0.67999
H          2.61074        1.06634        0.02440
H          2.58008       -0.04265       -1.34345
H          2.38869       -1.99040        0.24291
H          2.42603       -0.87846        1.60973
H          4.71859       -0.09629        0.90721
H          4.67923       -1.21177       -0.45703
H          4.48449       -3.15330        1.14155
H          4.53863       -2.03501        2.50273
H          6.83077       -1.27360        1.78697
H          6.77354       -2.38459        0.41949
H          6.57777       -4.33001        2.01081
H          6.64840       -3.21866        3.37701
H          8.93902       -2.47001        2.65820
H          8.86669       -3.56129        1.27500
H          8.68050       -5.52955        2.83113
H          8.74613       -4.44442        4.21873
H         11.03407       -3.67814        3.52667
H         10.97100       -4.73716        2.11646
H         10.80053       -6.74452        3.60974
H         10.82022       -5.70425        5.03297
H         13.09594       -4.87919        4.42216
H         13.08554       -5.88643        2.96706
H         12.86890       -7.95419        4.37790
H         12.86839       -6.97909        5.84054
H         14.81963       -8.15395        6.84464
H         16.30829       -8.34966        5.91662
H         15.04599       -9.89334        4.31111
H         13.64526       -9.79849        5.38229
H         15.03170      -10.71148        7.26999
H         16.43090      -10.79653        6.20158
H         13.79726      -12.36087        5.79554
H         15.32707      -13.03699        6.38340
H         15.20574      -12.44395        4.71716
H         16.29386       -6.06708        6.14523
H         14.73439       -5.21186        5.98209
H         16.33601       -4.17002        4.38278
H         17.22549       -4.24029        2.17020
H         15.98497       -5.06626        1.18212
H         17.50685       -5.89121        1.54177
