56

C          2.01437        5.27656        4.66188
C          3.37131        4.73857        4.20231
C          3.31222        3.26100        3.85263
O          4.63488        2.82359        3.49038
C          4.69682        1.46726        3.12225
C          6.18078        1.15128        2.81225
C          6.98074        1.29449        4.12161
O          8.28853        0.77420        4.01593
C          9.08964        1.10222        5.15484
C          6.63924        2.12591        1.69338
O          7.90389        1.82676        1.13899
C          7.87026        0.56041        0.50148
C          7.56998       -0.54172        1.50444
N          6.25605       -0.26511        2.21439
C          5.89133       -1.41958        3.13453
C          4.44606       -1.91398        2.93758
C          4.05395       -2.08150        1.46836
O          4.40813       -1.21982        0.63291
N          3.29267       -3.15508        1.16641
C          2.69875       -3.54500       -0.06861
C          2.90291       -2.86324       -1.27780
C          2.27409       -3.33497       -2.43276
C          1.45265       -4.46384       -2.39782
C          1.25444       -5.13634       -1.18803
C          1.87368       -4.68087       -0.02679
H          2.08492        6.34370        4.90700
H          1.65625        4.75307        5.56011
H          1.24903        5.16668        3.88030
H          4.12279        4.88148        4.99425
H          3.72584        5.29702        3.32264
H          2.62080        3.08098        3.00726
H          2.95521        2.66519        4.71538
H          4.07464        1.26332        2.22569
H          4.32732        0.82419        3.94803
H          6.43563        0.80036        4.95461
H          6.99176        2.37309        4.36102
H         10.07664        0.65736        4.98776
H          8.65465        0.69049        6.08242
H          9.19410        2.19512        5.25981
H          6.69569        3.13430        2.11642
H          5.86595        2.13043        0.89710
H          8.86084        0.38782        0.06020
H          7.12058        0.55965       -0.31540
H          8.35083       -0.60928        2.26792
H          7.44439       -1.50463        0.99061
H          5.50829       -0.34939        1.44830
H          6.06264       -1.11798        4.17321
H          6.59619       -2.22821        2.90687
H          3.73082       -1.20291        3.37947
H          4.34066       -2.85248        3.49993
H          3.07425       -3.77508        1.94265
H          3.53824       -1.98348       -1.31329
H          2.43386       -2.80680       -3.37342
H          0.96875       -4.81936       -3.30739
H          0.61415       -6.01751       -1.14590
H          1.71368       -5.20558        0.91894
