84

C         18.61392       -0.72166        4.45913
C         18.38997        0.29082        3.33428
C         16.94354        0.78855        3.25074
C         16.71415        1.81650        2.13931
C         15.25944        2.28028        2.02130
C         15.03952        3.31996        0.91865
C         13.57329        3.72485        0.74131
C         13.36362        4.78150       -0.34916
C         11.89205        5.07807       -0.67909
C         11.03798        5.60686        0.48620
C         11.50590        6.93572        1.09394
C         10.66611        7.41048        2.29191
C         11.15633        8.83305        2.52779
N         11.54667        9.35941        1.14326
C         11.49576        8.16050        0.14862
C         10.25452        8.31346       -0.73875
C         10.27782        9.49940       -1.71847
C         11.28945        9.35024       -2.86018
C         11.29090       10.53636       -3.82953
C         12.28467       10.36898       -4.98281
C         12.32682       11.56367       -5.93949
C         13.32757       11.38981       -7.08618
C         13.38151       12.59350       -8.02850
C         12.85439       10.10473        1.18189
O         12.98217       10.72729       -0.06124
C         13.82617       11.87066       -0.05327
O         15.10400       11.46423        0.34192
C         16.05429       12.54095        0.39197
C         17.28782       12.05821        1.13807
O         17.04104       11.83484        2.52600
H         19.65653       -1.06590        4.49048
H         17.97466       -1.60752        4.32987
H         18.37807       -0.28426        5.44073
H         18.67163       -0.16102        2.36823
H         19.06330        1.15370        3.47272
H         16.65235        1.22751        4.22147
H         16.27169       -0.07402        3.09553
H         17.03485        1.38674        1.17420
H         17.36528        2.69156        2.31193
H         14.92697        2.69633        2.98907
H         14.61399        1.40506        1.83058
H         15.42012        2.92272       -0.03825
H         15.64634        4.21691        1.13580
H         13.18314        4.08778        1.70868
H         12.97752        2.82873        0.49399
H         13.85410        4.43954       -1.27459
H         13.89350        5.70959       -0.06802
H         11.41944        4.15189       -1.04247
H         11.84849        5.78292       -1.52666
H         11.02769        4.86254        1.29711
H          9.99000        5.70238        0.16128
H         12.54464        6.80443        1.44562
H         10.81797        6.78907        3.18275
H          9.59251        7.39010        2.05414
H         12.06890        8.84615        3.13791
H         10.42609        9.52021        2.97013
H         10.84679       10.03864        0.81338
H         12.40779        8.23086       -0.45672
H          9.35309        8.36040       -0.10421
H         10.15874        7.38450       -1.31885
H         10.46632       10.45316       -1.19040
H          9.26640        9.60162       -2.14167
H         11.06309        8.42397       -3.41622
H         12.30787        9.22603       -2.45515
H         11.52688       11.46128       -3.27344
H         10.27526       10.67913       -4.23691
H         12.03146        9.45650       -5.55002
H         13.29515       10.19724       -4.57122
H         12.57807       12.47800       -5.37279
H         11.31949       11.73475       -6.35757
H         13.06688       10.48371       -7.65838
H         14.33067       11.20401       -6.66589
H         12.40047       12.78420       -8.48777
H         14.10322       12.43526       -8.84098
H         13.67862       13.50690       -7.49217
H         13.64795        9.36772        1.38471
H         12.80225       10.83233        2.01122
H         13.42373       12.63627        0.64713
H         13.79693       12.25287       -1.08892
H         15.61235       13.41217        0.91162
H         16.32569       12.84807       -0.63548
H         18.10416       12.78159        0.97658
H         17.60824       11.09436        0.71525
H         17.21153       12.65925        3.00628
