86

C          0.76347       -0.07514       -0.34515
C          2.22672        0.27615       -0.06489
C          2.80559       -0.45721        1.15035
C          4.27919       -0.13585        1.41797
C          4.86601       -0.88909        2.61611
C          6.35758       -0.61789        2.83666
C          6.95491       -1.39829        4.01181
C          8.46712       -1.20106        4.16630
C          9.06292       -2.02705        5.31353
C         10.57260       -1.89568        5.39895
O         11.04919       -2.75750        6.45545
C         12.45892       -2.83304        6.51058
C         12.87233       -3.91163        7.48573
C         13.60407       -3.57315        8.61391
C         13.99825       -4.55657        9.52182
C         13.61245       -5.86861        9.29387
C         12.85571       -6.21385        8.16857
N         12.52681       -5.22730        7.26726
C         11.79245       -5.58737        6.01984
C         12.71037       -5.77594        4.79931
C         12.03336       -6.76341        3.83047
O         11.62731       -7.84979        4.24724
N         11.93967       -6.32940        2.54277
C         11.39299       -6.97949        1.40551
C         10.73007       -8.21498        1.46739
C         10.21267       -8.76368        0.29198
C         10.34441       -8.10485       -0.93223
C         11.00503       -6.87391       -0.98491
C         11.52783       -6.31233        0.17703
C         12.42899       -7.64024        7.99456
C         13.32003       -8.48704        7.05846
C         13.31199       -9.94701        7.55117
O         13.33565      -10.20428        8.75232
N         13.31155      -10.86649        6.54150
C         13.40250      -12.27882        6.60632
C         13.51593      -12.99071        7.81098
C         13.60966      -14.38344        7.76797
C         13.59136      -15.07319        6.55377
C         13.47543      -14.35760        5.35844
C         13.38194      -12.96837        5.38241
H          0.38054        0.46218       -1.22351
H          0.11927        0.18334        0.50856
H          0.64098       -1.15204       -0.53528
H          2.32332        1.36451        0.08750
H          2.83821        0.04145       -0.95294
H          2.69155       -1.54642        1.00492
H          2.20686       -0.20981        2.04494
H          4.39580        0.95083        1.57534
H          4.87097       -0.37406        0.51616
H          4.71328       -1.97354        2.47302
H          4.30412       -0.62405        3.52876
H          6.51702        0.46316        2.99384
H          6.90999       -0.87306        1.91478
H          6.74399       -2.47398        3.87753
H          6.44815       -1.10533        4.94735
H          8.68596       -0.13131        4.32531
H          8.96376       -1.47585        3.21888
H          8.80862       -3.09105        5.17435
H          8.61971       -1.72046        6.27389
H         10.87867       -0.85419        5.60898
H         11.04917       -2.19901        4.44527
H         12.90259       -1.88182        6.85559
H         12.88920       -3.03339        5.50842
H         13.85401       -2.52564        8.77454
H         14.57807       -4.29365       10.40690
H         13.87139       -6.66317        9.99250
H         11.04641       -4.80377        5.85482
H         11.27069       -6.52933        6.20230
H         13.66152       -6.23555        5.10862
H         12.95232       -4.81914        4.31790
H         12.33664       -5.41475        2.34890
H         10.62287       -8.72918        2.41797
H          9.69575       -9.72256        0.34079
H          9.93484       -8.54598       -1.84068
H         11.11538       -6.34737       -1.93304
H         12.04713       -5.35145        0.13199
H         11.37859       -7.71141        7.67893
H         12.49423       -8.11435        8.98552
H         14.36603       -8.14499        7.12168
H         12.99065       -8.40728        6.01406
H         13.23054      -10.49048        5.60071
H         13.52759      -12.45755        8.75741
H         13.70010      -14.93371        8.70511
H         13.66565      -16.16045        6.53784
H         13.45998      -14.88107        4.40218
H         13.29308      -12.41055        4.44670
