67

C          2.10564        2.18107       -1.35027
C          2.80854        0.95905       -1.94806
C          4.02516        0.50890       -1.12874
C          4.68569       -0.78355       -1.62038
N          5.28064       -0.66536       -2.95852
C          6.60997       -0.68049       -3.17630
O          7.46953       -0.80659       -2.29301
C          7.07606       -0.53395       -4.63065
P          8.89610       -0.47581       -4.57241
C          9.69009       -2.04432       -4.12117
C         11.23419       -1.99529       -4.10729
C         11.88837       -0.86725       -3.28159
C         11.45165       -0.88294       -1.80304
C         11.92063        0.34013       -0.98789
C         11.35317        0.35336        0.40400
C         11.99101        0.04713        1.54917
C         13.43566       -0.37090        1.63468
C         11.27132        0.10790        2.87130
C         13.41292       -0.95180       -3.44394
C          9.49535        0.11925       -6.19367
O          8.94168        1.41941       -6.32551
C          9.10183        1.96998       -7.65156
O          8.53444        1.16961       -8.63586
C          7.09381        1.13062       -8.63988
C          6.64106       -0.24103       -9.08372
O          6.92199       -1.18780       -8.03324
H          1.24594        2.48559       -1.96159
H          2.78642        3.04182       -1.28022
H          1.73454        1.96849       -0.33749
H          3.11584        1.19478       -2.98260
H          2.09235        0.12290       -2.02273
H          3.71541        0.33520       -0.08524
H          4.78033        1.31145       -1.09497
H          3.95187       -1.60424       -1.64853
H          5.50111       -1.08228       -0.95074
H          4.65989       -0.53382       -3.75053
H          6.73327        0.39763       -5.10543
H          6.75939       -1.36196       -5.28218
H          9.23950        0.53281       -3.65340
H          9.32621       -2.79145       -4.84417
H          9.26791       -2.29904       -3.13992
H         11.60717       -1.94809       -5.14248
H         11.56928       -2.96924       -3.71523
H         11.57485        0.10669       -3.71112
H         11.83029       -1.80152       -1.32274
H         10.35302       -0.93715       -1.72481
H         11.60337        1.25788       -1.51597
H         13.01834        0.37307       -0.95842
H         10.29426        0.62660        0.47544
H         13.93870       -0.41662        0.66175
H         13.51933       -1.36477        2.10293
H         14.00367        0.31998        2.27795
H         10.22508        0.41747        2.75414
H         11.76496        0.81817        3.55419
H         11.28826       -0.87040        3.37818
H         13.80311       -1.87807       -2.99573
H         13.91852       -0.10807       -2.95872
H         13.70522       -0.94354       -4.50374
H          9.13955       -0.56996       -6.98017
H         10.60113        0.12870       -6.18722
H         10.17205        2.04921       -7.89966
H          8.63874        2.96637       -7.57233
H          6.71124        1.89216       -9.33983
H          6.70110        1.34628       -7.63286
H          7.17220       -0.51875      -10.00898
H          5.55863       -0.20502       -9.29791
H          6.78123       -2.07579       -8.39564
