89

C          0.04636       -0.36911       -1.37569
C          1.48975       -0.41228       -0.86810
C          2.37586       -1.39938       -1.63614
C          3.81979       -1.45073       -1.12618
C          4.70938       -2.43471       -1.89334
C          6.14751       -2.49175       -1.36649
C          7.05351       -3.44690       -2.15012
C          8.49641       -3.47625       -1.62644
C          9.43957       -4.31915       -2.50450
C         10.95702       -4.38813       -2.17775
C         11.55492       -3.06150       -1.67486
N         11.18204       -2.81223       -0.22186
C         11.64768       -1.46981        0.25967
C         11.12104       -1.12423        1.65922
O         10.93503        0.27347        1.64392
C         10.89074        0.89874        2.91359
C         11.21941        2.38461        2.73870
C         12.72541        2.78082        2.51180
C         13.53432        2.29088        1.25261
C         13.01718        2.73591       -0.14931
F         13.99296        2.45714       -1.05814
F         11.90976        2.01545       -0.49597
F         14.77977        2.81659        1.39623
F         13.65664        0.92631        1.28835
F         12.77717        4.14169        2.48497
F         13.41649        2.33642        3.60140
F         10.47574        2.92670        1.73037
F         10.86067        3.00447        3.90417
C         11.63562       -3.96641        0.64347
C         11.03606       -5.27006        0.09376
N         11.33086       -5.51948       -1.30783
C         12.68662       -6.05534       -1.53510
C         12.81625       -6.74183       -2.91098
P         13.86243       -6.00294       -4.21048
O         13.60978       -6.55821       -5.55239
O         13.55995       -4.41074       -4.04505
C         13.72341       -3.55018       -5.22367
C         15.15775       -3.08983       -5.40508
O         15.39341       -6.20587       -3.77262
C         16.06679       -5.52305       -2.68413
C         17.53646       -5.39751       -3.03190
H         -0.56058        0.34308       -0.80065
H         -0.43527       -1.35481       -1.29620
H          0.00226       -0.06509       -2.43188
H          1.49549       -0.67898        0.20246
H          1.93270        0.59623       -0.92957
H          2.37532       -1.13221       -2.70762
H          1.93201       -2.40877       -1.57789
H          3.81710       -1.72029       -0.05510
H          4.26204       -0.44018       -1.18189
H          4.72472       -2.15686       -2.96152
H          4.26420       -3.44358       -1.84991
H          6.13246       -2.78792       -0.30215
H          6.58261       -1.47625       -1.39361
H          7.06909       -3.15057       -3.21261
H          6.63845       -4.46791       -2.12438
H          8.46922       -3.84729       -0.58414
H          8.84305       -2.42277       -1.59523
H          9.35413       -3.92887       -3.53105
H          9.07990       -5.35759       -2.54422
H         11.46580       -4.56180       -3.13412
H         11.19024       -2.19971       -2.24934
H         12.65196       -3.07310       -1.72404
H         10.14689       -2.80301       -0.19587
H         11.26197       -0.72131       -0.44514
H         12.74321       -1.45564        0.21112
H         11.83608       -1.42249        2.44624
H         10.16130       -1.64808        1.86001
H         11.61635        0.45683        3.61747
H          9.88270        0.84689        3.36096
H         12.78139        3.81047       -0.17948
H         11.29834       -3.77318        1.66972
H         12.73422       -3.96080        0.62362
H          9.94359       -5.24923        0.23860
H         11.41045       -6.10479        0.70199
H         12.85156       -6.80368       -0.74775
H         13.48071       -5.29372       -1.40135
H         11.81950       -6.87173       -3.35685
H         13.21708       -7.75892       -2.79124
H         13.04886       -2.70268       -5.03855
H         13.36447       -4.10530       -6.10170
H         15.53048       -2.56892       -4.51218
H         15.21077       -2.39154       -6.25217
H         15.82188       -3.93518       -5.62765
H         15.92656       -6.11672       -1.76559
H         15.60877       -4.53165       -2.53812
H         17.97868       -6.38457       -3.21594
H         18.07861       -4.92593       -2.20044
H         17.67561       -4.78229       -3.92984
