78

C          0.63088       -0.36117       -0.24282
C          2.15923       -0.42316       -0.29842
C          2.77194       -1.35430        0.75391
C          4.30308       -1.38711        0.72214
C          4.92766       -2.32747        1.75831
C          6.45961       -2.30309        1.75114
C          7.10300       -3.25175        2.76816
C          8.63335       -3.17375        2.77995
C          9.29524       -4.11874        3.78794
C         10.82184       -3.98420        3.82396
C         11.48988       -4.92936        4.83144
C         12.99056       -4.71629        4.90857
O         13.54379       -5.63891        5.87832
C         14.95120       -5.55165        6.03969
C         15.34241       -6.64898        7.04219
N         14.46283       -7.86561        6.73452
C         15.30938       -8.89947        5.99704
C         16.64568       -8.18600        5.73150
C         16.77757       -7.18348        6.92029
C         17.25500       -7.75657        8.27541
C         18.76635       -7.99748        8.49286
C         19.60000       -6.72551        8.24312
C         21.11229       -6.91702        8.39498
C         18.96484       -8.55931        9.90877
C         17.82455       -9.13430        5.47091
C         17.75032       -9.86319        4.12386
N         16.58844      -10.76510        4.05959
H          0.22627        0.31273       -1.01047
H          0.28148        0.00236        0.73523
H          0.18369       -1.35360       -0.40359
H          2.57332        0.59118       -0.16746
H          2.47954       -0.75091       -1.30202
H          2.37860       -2.37634        0.60992
H          2.43457       -1.04131        1.75799
H          4.68991       -0.36478        0.88041
H          4.64112       -1.68250       -0.28687
H          4.57474       -3.35814        1.57787
H          4.56378       -2.05602        2.76499
H          6.80519       -1.27278        1.94761
H          6.82396       -2.55386        0.73930
H          6.78828       -4.28818        2.55370
H          6.71858       -3.02191        3.77745
H          8.93991       -2.13627        3.00096
H          9.01821       -3.39220        1.76840
H          9.02280       -5.16158        3.54903
H          8.88985       -3.92238        4.79575
H         11.08493       -2.94130        4.07116
H         11.23028       -4.17045        2.81582
H         11.28550       -5.97699        4.55361
H         11.05793       -4.77474        5.83336
H         13.22918       -3.68639        5.22719
H         13.47592       -4.89290        3.93079
H         15.25646       -4.57306        6.44885
H         15.46248       -5.68809        5.06783
H         15.09030       -6.32189        8.05894
H         13.67222       -7.48262        6.17352
H         14.06952       -8.25600        7.59507
H         14.79245       -9.23122        5.09393
H         15.42667       -9.76408        6.66094
H         16.52142       -7.58141        4.81629
H         17.43486       -6.35216        6.62470
H         16.72330       -8.70114        8.49163
H         16.92689       -7.05175        9.05977
H         19.11399       -8.76617        7.78382
H         19.25532       -5.92958        8.92729
H         19.40538       -6.35368        7.22351
H         21.39954       -7.14941        9.42872
H         21.65050       -6.00524        8.10518
H         21.47778       -7.73465        7.75563
H         18.69045       -7.81569       10.67326
H         20.00650       -8.85157       10.08795
H         18.34384       -9.45187       10.07256
H         17.90435       -9.87597        6.28300
H         18.75718       -8.55124        5.49164
H         18.71550      -10.37306        3.95181
H         17.64221       -9.12082        3.31735
H         16.77558      -11.62070        4.58611
H         16.42323      -11.06240        3.09765
