78

C         10.01475        3.98033       -0.25604
C          9.49260        2.84529       -1.14029
C          9.55044        1.47195       -0.46213
C          9.02891        0.32947       -1.33944
C          9.08701       -1.04316       -0.66217
C          8.58965       -2.18643       -1.55240
C          8.69084       -3.56444       -0.88720
C          8.21239       -4.74366       -1.75101
C          8.91003       -4.88697       -3.11636
C         10.43850       -4.91834       -3.03520
C         11.10048       -6.15984       -2.34514
C         10.37751       -7.52446       -2.55844
C         10.91074       -8.67146       -1.69598
C          9.99053       -9.89951       -1.70193
S          9.83202      -10.73696       -3.30691
C          8.24105      -10.17566       -3.93747
S          7.32578       -8.97725       -3.20605
N          7.86504      -10.82767       -5.05981
C          6.61496      -10.46761       -5.75583
C          5.40708      -11.26237       -5.25814
C          8.61311      -11.95416       -5.64486
C          9.60568      -11.53663       -6.73270
C         12.41501       -6.21546       -3.03010
N         12.42372       -5.53955       -4.12892
C         11.15185       -4.82753       -4.40143
C         11.41542       -3.41429       -4.92972
C         12.38541       -3.39029       -6.10563
O         13.27640       -4.22289       -6.26199
O         12.16242       -2.35353       -6.90583
C         13.08776       -2.15246       -8.03848
C         14.27558       -1.30711       -7.62238
H          9.96003        4.94931       -0.77046
H         11.06436        3.81517        0.02963
H          9.43031        4.06449        0.67206
H         10.07250        2.81149       -2.07872
H          8.45187        3.05821       -1.43762
H          8.96965        1.50494        0.47627
H         10.59173        1.25718       -0.16242
H          9.61071        0.29742       -2.27886
H          7.98835        0.54424       -1.63910
H          8.49462       -1.02002        0.26849
H         10.12615       -1.25225       -0.34969
H          9.16817       -2.17060       -2.49429
H          7.54245       -2.00002       -1.84724
H          8.09900       -3.55954        0.04165
H          9.73246       -3.73197       -0.55695
H          7.13217       -4.64501       -1.93880
H          8.32516       -5.67736       -1.17610
H          8.62225       -4.03865       -3.75721
H          8.53688       -5.78811       -3.62794
H         10.77382       -4.04081       -2.45656
H         11.22199       -6.00506       -1.26246
H         10.40125       -7.80639       -3.62301
H          9.31414       -7.37225       -2.32524
H         10.99259       -8.33602       -0.64759
H         11.92533       -8.97115       -2.00512
H          8.96809       -9.63427       -1.39150
H         10.38179      -10.67153       -1.02574
H          6.78671      -10.64833       -6.82701
H          6.45393       -9.39243       -5.60825
H          5.55133      -12.34436       -5.38222
H          4.51575      -10.97564       -5.83200
H          5.21532      -11.05332       -4.19858
H          7.86636      -12.64823       -6.05617
H          9.12408      -12.49275       -4.83494
H          9.10308      -11.01382       -7.55760
H         10.09308      -12.42842       -7.14905
H         10.38603      -10.87890       -6.32905
H         13.28608       -6.80447       -2.73529
H         13.17421       -5.43002       -4.83739
H         10.62459       -5.41387       -5.17560
H         11.85364       -2.79068       -4.13179
H         10.46921       -2.93879       -5.21677
H         12.46243       -1.64813       -8.78369
H         13.38854       -3.13877       -8.41154
H         13.95211       -0.34087       -7.21475
H         14.90069       -1.10989       -8.50423
H         14.89707       -1.82259       -6.87928
