49

C          0.55739        1.65563        0.86456
C          1.63466        0.59364        0.87050
O          2.78574        1.13042        1.60999
C          3.96341        0.45078        1.46604
O          4.09420       -0.54959        0.80401
C          5.09014        1.12150        2.25547
C          4.85905        1.06884        3.77610
C          3.97085        2.27521        4.08056
N          4.19577        3.27345        2.92993
C          5.24549        2.63090        1.98020
C          5.07084        3.06278        0.52343
C          6.10888        2.39343       -0.38908
C          5.97688        2.85122       -1.84203
C          7.09008        2.27240       -2.71539
O          8.02383        1.64131       -2.28544
O          6.98780        2.52268       -4.05069
C          4.42524        4.69188        3.47968
C          4.99161        5.68880        2.47316
O          6.35365        5.37972        2.20121
C          3.09226        5.19979        4.06261
C          3.25282        6.34968        5.06329
H         -0.32515        1.27843        0.33131
H          0.89269        2.56586        0.34792
H          0.24117        1.91876        1.88310
H          1.97404        0.32624       -0.13857
H          1.31292       -0.32801        1.37472
H          6.00882        0.59292        1.97737
H          5.82508        1.15727        4.29108
H          4.39304        0.13315        4.10710
H          4.22879        2.77182        5.02095
H          2.90756        2.01843        4.08735
H          3.32224        3.27916        2.38196
H          6.22268        2.96174        2.35748
H          5.19529        4.14926        0.44449
H          4.05012        2.82024        0.18398
H          6.01574        1.29887       -0.35924
H          7.12432        2.62375       -0.03453
H          6.02740        3.95176       -1.91464
H          4.99937        2.55684       -2.26042
H          6.18073        3.03002       -4.24715
H          5.17670        4.55696        4.27280
H          4.89828        6.68230        2.93777
H          4.37516        5.70479        1.55352
H          6.79359        6.16218        1.83449
H          2.57338        4.37319        4.56894
H          2.43665        5.50803        3.22996
H          3.89698        6.05961        5.90491
H          2.27448        6.62648        5.47427
H          3.67773        7.25300        4.60746
