53

C          4.73625       -4.23418        7.58268
C          5.48311       -3.21077        6.72096
C          4.52228       -2.21842        6.08424
O          5.28588       -1.18207        5.34750
C          5.54322       -1.41087        4.07260
O          5.15210       -2.33119        3.37497
C          6.46268       -0.33429        3.48061
N          7.18034       -0.96491        2.32030
C          7.32320       -0.02619        1.14328
C          7.70094       -0.77971       -0.12420
O          6.80504       -1.88404       -0.19461
C          8.49743       -1.61596        2.72595
C          8.34651       -2.61359        3.86981
C          9.67361       -3.31066        4.20372
P          9.46648       -4.34785        5.69378
O          8.26287       -5.21562        5.65721
O         10.86129       -5.10713        5.89635
C         11.00227       -6.54703        5.65711
C         11.91208       -7.12288        6.72164
O          9.49878       -3.19806        6.81062
C          9.29759       -3.54685        8.22087
C         10.61377       -3.51587        8.97338
H          5.44768       -4.94573        8.01974
H          4.01624       -4.81340        6.98788
H          4.18836       -3.75438        8.40632
H          6.05565       -3.73819        5.94381
H          6.20977       -2.65606        7.33524
H          3.96238       -1.64116        6.82969
H          3.82660       -2.69629        5.38308
H          7.18090        0.05892        4.20797
H          5.84644        0.49435        3.10731
H          6.53599       -1.73422        2.01712
H          8.05954        0.74700        1.39763
H          6.33875        0.44109        1.01172
H          8.75521       -1.10715       -0.10845
H          7.58153       -0.08314       -0.97113
H          6.91670       -2.35477       -1.03481
H          9.18067       -0.79386        2.98570
H          8.87805       -2.11472        1.82611
H          7.59952       -3.37827        3.61391
H          7.98802       -2.10214        4.77567
H         10.48798       -2.59601        4.39352
H          9.99201       -3.97674        3.38773
H         11.43265       -6.66642        4.65118
H         10.00325       -7.00354        5.67373
H         12.89199       -6.62782        6.71695
H         12.06915       -8.19370        6.53074
H         11.46838       -7.01599        7.72059
H          8.80525       -4.52894        8.28161
H          8.59675       -2.79237        8.60346
H         11.30628       -4.27868        8.59630
H         10.43224       -3.70926       10.03997
H         11.09418       -2.53304        8.88180
