46

C          1.56035        1.26246        0.65389
C          2.77344        0.47316        0.15183
C          3.15993        0.87082       -1.26020
O          4.27175        0.01636       -1.67529
C          4.86919        0.31573       -2.86282
N          5.94503        1.44872       -2.68362
C          6.60073        1.31820       -1.30801
O          6.34338        2.13070       -0.46638
O          7.36304        0.25508       -1.31384
C          7.99001       -0.11453       -0.00819
C          7.01791       -0.87726        0.87143
C          6.48615       -2.18288        0.26690
C          5.53252       -2.91672        1.21215
C          6.92690        1.52677       -3.85642
C          7.81609        2.73020       -3.72748
C          9.09874        2.60772       -3.17282
C          9.90500        3.73670       -3.01996
C          9.43473        4.99217       -3.41531
C          8.15982        5.11981       -3.97526
C          7.35433        3.99226       -4.13477
H          1.32187        0.98157        1.68707
H          0.66819        1.06462        0.04299
H          1.74561        2.34625        0.64146
H          2.56427       -0.60751        0.16908
H          3.63824        0.64410        0.81161
H          3.47403        1.92924       -1.28617
H          2.33038        0.72687       -1.97241
H          4.18986        0.69050       -3.64736
H          5.43603       -0.55726       -3.21051
H          5.46491        2.35761       -2.61715
H          8.34105        0.81559        0.45491
H          8.84279       -0.72637       -0.32478
H          6.18488       -0.21659        1.15957
H          7.56520       -1.08990        1.80588
H          7.33482       -2.83778        0.00892
H          5.96343       -1.96420       -0.67712
H          6.02629       -3.17942        2.15859
H          5.16486       -3.84685        0.76004
H          4.65719       -2.29605        1.45504
H          6.30131        1.56794       -4.75931
H          7.48559        0.58381       -3.84982
H          9.47172        1.62593       -2.87465
H         10.90527        3.63527       -2.59895
H         10.06820        5.87131       -3.29609
H          7.79865        6.09610       -4.29857
H          6.36883        4.09381       -4.59779
