38

C          1.10259       -1.02883       -0.81605
O          2.46060       -1.02612       -0.35626
C          2.56595       -0.99695        1.05821
C          4.03501       -0.93380        1.35561
N          4.91926       -0.87336        0.29473
C          6.17270       -0.83992        0.72908
N          6.13100       -0.88169        2.07985
C          4.78404       -0.93760        2.51175
C          4.31104       -0.96298        3.92931
C          4.50820        0.35706        4.71292
C          3.74061        1.58128        4.16636
C          2.23417        1.39492        4.27919
O          1.60051        0.66944        3.54031
O          1.59894        2.03582        5.29005
C          7.41034       -0.91665        2.80004
O          8.43678       -0.72569        2.20185
O          7.20764       -1.18117        4.07526
C          8.42363       -1.25588        4.92820
C          9.01398       -2.64873        4.90758
H          1.14612       -1.04254       -1.91009
H          0.57067       -0.12513       -0.47774
H          0.56832       -1.92430       -0.45904
H          2.12706       -1.90526        1.51631
H          2.04794       -0.12984        1.50456
H          4.58552       -0.86970       -0.67088
H          7.08127       -0.79624        0.14043
H          4.81854       -1.77104        4.47268
H          3.24280       -1.21695        3.90173
H          5.57600        0.61135        4.74559
H          4.20711        0.16895        5.75434
H          3.97094        1.73641        3.10195
H          4.07752        2.48049        4.70233
H          2.21656        2.60132        5.78596
H          8.03990       -0.97598        5.91576
H          9.12556       -0.49335        4.56901
H          8.28024       -3.39987        5.22618
H          9.85719       -2.68048        5.61142
H          9.39817       -2.91079        3.91402
