88

C         15.91873        9.76118       -4.04104
C         15.40457        8.47372       -3.39230
C         15.78553        7.20991       -4.17106
C         15.28888        5.91040       -3.52972
C         15.66828        4.65731       -4.32500
C         15.18984        3.34540       -3.69448
C         15.53830        2.11293       -4.53500
C         15.08233        0.78240       -3.92659
C         15.35154       -0.41490       -4.84397
C         14.94720       -1.76997       -4.25307
C         15.15258       -2.93017       -5.23257
C         14.78597       -4.30697       -4.66907
C         14.93323       -5.43246       -5.69976
C         14.61958       -6.82676       -5.14117
C         14.58080       -7.95263       -6.18855
C         15.85550       -8.12256       -7.02819
N         17.05773       -8.35661       -6.19762
C         17.48725       -9.58050       -5.80006
N         17.61477      -10.58174       -6.68429
C         17.83051      -10.45078       -8.12690
C         18.98089      -11.36451       -8.53629
O         18.64749      -12.65642       -8.03795
C         19.69512      -13.61037       -8.06900
C         19.48252      -14.56362       -6.89632
F         18.29887      -15.20695       -6.96731
F         20.46866      -15.48242       -6.85698
F         19.49860      -13.88115       -5.70871
N         17.82838       -9.75784       -4.51819
C         18.53671      -10.89162       -3.92468
C         19.17430      -10.40974       -2.61827
O         18.19528       -9.61712       -1.96588
C         18.57276       -9.16903       -0.65584
C         17.60894       -8.09727       -0.19593
O         16.32050       -8.65602       -0.03126
C         15.38024       -7.71467        0.47362
H         15.62880       10.64926       -3.46283
H         15.51866        9.88297       -5.05877
H         17.01647        9.75891       -4.11763
H         14.30666        8.52230       -3.29476
H         15.79489        8.39743       -2.36322
H         16.88420        7.16674       -4.27714
H         15.38847        7.28400       -5.19919
H         14.19099        5.95359       -3.41862
H         15.69229        5.83105       -2.50477
H         16.76546        4.62232       -4.44698
H         15.25629        4.73896       -5.34646
H         14.09643        3.38769       -3.54577
H         15.62760        3.24145       -2.68599
H         16.62980        2.08092       -4.70053
H         15.08746        2.22416       -5.53718
H         14.00277        0.83268       -3.70045
H         15.58759        0.62831       -2.95692
H         16.42457       -0.43981       -5.10486
H         14.81569       -0.26283       -5.79746
H         13.88723       -1.73558       -3.94619
H         15.52354       -1.95628       -3.32960
H         16.20622       -2.94315       -5.56470
H         14.55483       -2.74161       -6.14142
H         13.74691       -4.29076       -4.29784
H         15.41746       -4.52557       -3.78937
H         15.95923       -5.39985       -6.11050
H         14.26730       -5.22813       -6.55633
H         13.63915       -6.80418       -4.64039
H         15.33585       -7.07564       -4.33540
H         13.75853       -7.76328       -6.89761
H         14.34741       -8.90977       -5.69473
H         16.05253       -7.23258       -7.64098
H         15.73746       -8.96708       -7.71575
H         17.23338       -7.62273       -5.51493
H         17.75749      -11.52677       -6.33062
H         18.07421       -9.40828       -8.36694
H         16.91911      -10.73476       -8.67492
H         19.93234      -11.01633       -8.09256
H         19.08462      -11.36495       -9.63550
H         20.68523      -13.14049       -7.94268
H         19.69063      -14.19235       -9.00592
H         17.44473       -9.12457       -3.81338
H         19.30992      -11.26361       -4.61141
H         17.82954      -11.71088       -3.71535
H         20.08377       -9.81185       -2.82189
H         19.46489      -11.28608       -2.01215
H         19.59414       -8.74709       -0.67957
H         18.55918      -10.02383        0.04295
H         17.58743       -7.26641       -0.93238
H         17.98866       -7.68013        0.75875
H         14.42352       -8.24023        0.56926
H         15.25592       -6.85691       -0.21319
H         15.68318       -7.33169        1.46476
