98

C         14.74821       -4.38780       -9.38223
C         14.25771       -3.81262       -8.05102
C         14.85174       -4.51800       -6.82683
C         14.36557       -3.94839       -5.49039
C         14.96553       -4.64752       -4.26634
C         14.48722       -4.06843       -2.93091
C         15.09003       -4.76363       -1.70611
C         14.62130       -4.17725       -0.37030
C         15.22536       -4.87601        0.85183
C         14.76831       -4.28974        2.19190
C         15.35574       -5.01658        3.40585
C         14.91703       -4.43722        4.75510
C         15.45604       -5.22475        5.95427
C         15.02260       -4.65670        7.31206
C         15.41736       -5.51914        8.52028
C         16.92504       -5.60475        8.79132
C         17.27012       -6.55609        9.94408
C         18.75333       -6.58293       10.35309
C         19.33420       -5.22885       10.79891
C         18.55713       -4.61625       11.96570
N         19.05155       -3.25814       12.26096
C         18.28323       -2.17504       12.40794
N         18.70467       -0.92409       12.10398
C         17.66439        0.07121       12.42240
C         16.41253       -0.81976       12.61824
N         17.01857       -2.16621       12.86640
C         16.49244       -3.06304       13.90397
C         17.09768       -2.76895       15.28590
C         16.63720       -3.76134       16.35698
C         17.19672       -5.16619       16.14176
O         17.95380       -5.46645       15.24426
O         16.80247       -6.10964       17.03159
Si        15.22711       -0.90005       11.08272
C         13.93944       -2.23386       11.39611
C         14.45400        0.80069       10.89507
C         16.28060       -1.36179        9.59010
H         14.30698       -3.85891      -10.23837
H         14.48608       -5.45210       -9.47860
H         15.84219       -4.30963       -9.47212
H         13.15701       -3.87416       -8.00609
H         14.50048       -2.73738       -8.00225
H         15.95374       -4.45561       -6.87097
H         14.61067       -5.59487       -6.87488
H         13.26408       -4.01518       -5.44481
H         14.60266       -2.87052       -5.44635
H         16.06721       -4.58673       -4.31586
H         14.72264       -5.72415       -4.30542
H         13.38574       -4.13041       -2.88016
H         14.72906       -2.99138       -2.89422
H         16.19171       -4.70815       -1.76132
H         14.84218       -5.83935       -1.73872
H         13.51973       -4.23212       -0.31420
H         14.87050       -3.10176       -0.33705
H         16.32714       -4.82885        0.79100
H         14.96946       -5.94985        0.81943
H         13.66583       -4.32137        2.24723
H         15.04128       -3.22037        2.23531
H         16.45830       -4.99983        3.34351
H         15.06981       -6.08227        3.36112
H         13.81404       -4.41418        4.80232
H         15.24418       -3.38451        4.82664
H         16.55690       -5.26140        5.89210
H         15.11526       -6.27253        5.87978
H         13.92620       -4.53766        7.31167
H         15.43646       -3.63911        7.43182
H         15.01609       -6.53777        8.37937
H         14.91938       -5.12539        9.42425
H         17.30002       -4.58617        9.00011
H         17.45891       -5.93466        7.88533
H         16.97669       -7.57898        9.66025
H         16.64136       -6.31575       10.82009
H         19.35975       -6.94692        9.50936
H         18.88846       -7.31749       11.16270
H         19.32898       -4.51976        9.95541
H         20.38805       -5.36748       11.09111
H         18.62087       -5.24193       12.86837
H         17.49842       -4.51532       11.69459
H         20.04275       -3.09159       12.10991
H         19.40050       -0.76203       11.38446
H         17.55803        0.78368       11.59445
H         17.94350        0.63549       13.32581
H         15.85853       -0.51282       13.51642
H         16.69043       -4.10325       13.62551
H         15.40217       -2.93297       13.91141
H         16.83378       -1.74839       15.60060
H         18.19388       -2.81697       15.20980
H         15.53603       -3.81842       16.40451
H         16.96405       -3.41521       17.35107
H         16.20931       -5.73054       17.70483
H         13.34838       -2.03722       12.30141
H         14.39879       -3.22837       11.48671
H         13.23931       -2.27675       10.54965
H         13.86533        1.07375       11.78215
H         13.77590        0.81542       10.03032
H         15.20667        1.58491       10.73254
H         16.75280       -2.34658        9.71667
H         17.06494       -0.62207        9.37786
H         15.64430       -1.42508        8.69604
