74

C          1.11705       -0.20548       -0.22162
C          2.63022       -0.09139       -0.02162
C          3.12718       -0.76045        1.26542
C          4.63890       -0.62549        1.47424
C          5.14516       -1.27696        2.76699
C          6.64961       -1.06392        2.98009
C          7.15608       -1.69381        4.28101
S          8.93552       -1.25514        4.43438
C          9.37185       -1.87781        5.98679
N         10.21123       -1.33666        6.82645
N         10.40722       -2.25208        7.85846
C          9.66687       -3.28009        7.59715
O          8.95552       -3.14238        6.41824
C          9.53028       -4.53594        8.40728
C          8.05063       -4.94190        8.59956
N          7.49163       -5.49552        7.30902
C          6.02199       -5.83996        7.41532
O          5.59915       -6.09737        6.12570
C          4.45490       -6.99312        6.02549
C          4.28142       -7.38961        4.57222
C          3.10702       -8.35828        4.37752
C          2.94227       -8.81311        2.92204
C          1.78014       -9.78971        2.72910
C          8.32893       -6.65886        6.81568
C          9.78544       -6.20064        6.66063
N         10.35877       -5.61641        7.86502
C         10.86398       -6.59045        8.84967
C         11.70364       -5.95138        9.95402
C         12.49157       -6.99651       10.75215
N         13.10909       -6.36913       11.92046
H          0.79738        0.28838       -1.14917
H          0.56745        0.26271        0.60865
H          0.79746       -1.25675       -0.27885
H          2.92005        0.97272       -0.00864
H          3.15218       -0.53481       -0.88611
H          2.85020       -1.82970        1.25125
H          2.59858       -0.32217        2.13039
H          4.90887        0.44461        1.48194
H          5.17028       -1.06428        0.61214
H          4.92071       -2.35800        2.74879
H          4.59216       -0.86076        3.62678
H          6.86542        0.01678        2.99527
H          7.21008       -1.48184        2.12769
H          7.04488       -2.78743        4.26029
H          6.62515       -1.28651        5.15273
H          9.92199       -4.26964        9.39782
H          7.42751       -4.08812        8.89651
H          7.95979       -5.73380        9.35475
H          7.56514       -4.74340        6.59851
H          5.52692       -4.96486        7.87674
H          5.93607       -6.71303        8.08818
H          3.56070       -6.47595        6.41324
H          4.64722       -7.87721        6.66066
H          5.21454       -7.85713        4.21729
H          4.12846       -6.48230        3.96653
H          2.17257       -7.88092        4.71890
H          3.24893       -9.24498        5.01970
H          3.88064       -9.28280        2.58238
H          2.79546       -7.92868        2.28002
H          1.91606      -10.69882        3.33309
H          1.69188      -10.10004        1.67982
H          0.82208       -9.33648        3.02252
H          7.88941       -6.98784        5.86716
H          8.21744       -7.45661        7.56352
H          9.84815       -5.47515        5.83275
H         10.38992       -7.06687        6.36057
H         11.49242       -7.29046        8.27697
H         10.05870       -7.20372        9.31165
H         11.07933       -5.39886       10.67439
H         12.39554       -5.22290        9.50035
H         13.20526       -7.50493       10.07158
H         11.80165       -7.77383       11.11964
H         13.85719       -5.73380       11.63900
H         13.53654       -7.07018       12.52493
