70

O          6.66424       -2.95230        2.84737
C          6.91291       -1.73147        2.16508
C          5.68482       -0.85238        2.37418
O          5.99977        0.45623        1.88556
C          4.90724        1.36280        1.89622
O          5.40181        2.67238        2.06830
C          5.75273        3.00022        3.40973
C          6.90229        2.20007        3.95099
N          6.83129        1.49173        5.06247
N          8.06400        0.93271        5.20175
C          8.86415        1.27595        4.19440
N          8.15954        2.08914        3.38821
C          8.65256        2.69733        2.13660
C          9.21506        4.09972        2.36839
C          9.76421        4.70103        1.07388
C         10.23761        6.13886        1.29272
O         10.08062        6.74688        2.32294
O         10.85528        6.72712        0.23324
C          8.33006       -0.08831        6.22425
C          8.00130       -1.48575        5.65970
C          8.97539       -2.58098        6.13059
S          9.46611       -3.72448        4.80671
C         10.75149       -2.79785        3.96799
S         11.29355       -1.28615        4.43636
N         11.27751       -3.49794        2.92708
C         10.68012       -4.73611        2.47017
C         11.23491       -5.96089        2.85377
C         10.64948       -7.14642        2.40619
C          9.52380       -7.10683        1.57797
C          8.98461       -5.87860        1.18366
C          9.56606       -4.68900        1.62295
C         12.50673       -3.09538        2.27750
C         12.48912       -2.73636        0.92806
C         13.68834       -2.40816        0.29138
C         14.89285       -2.44297        0.99819
C         14.90079       -2.81152        2.34714
C         13.70908       -3.14242        2.99064
H          7.50861       -3.40151        3.03185
H          7.08294       -1.89004        1.08413
H          7.80344       -1.20602        2.56210
H          5.43679       -0.81293        3.45134
H          4.82077       -1.28190        1.83894
H          4.19633        1.09744        2.70407
H          4.39590        1.37084        0.92085
H          4.90673        2.85154        4.10126
H          6.00426        4.07047        3.39906
H          9.87195        0.89321        4.03463
H          7.80590        2.69839        1.43893
H          9.41503        2.01424        1.73764
H         10.01203        4.06475        3.12600
H          8.43812        4.76460        2.77179
H          8.99187        4.71172        0.28551
H         10.60150        4.09918        0.68220
H         10.91297        6.11540       -0.52189
H          7.72987        0.18430        7.09956
H          9.39480       -0.01175        6.47665
H          8.06657       -1.41674        4.56936
H          6.96225       -1.75945        5.88347
H          8.53036       -3.23815        6.88972
H          9.90379       -2.15553        6.53706
H         12.11058       -5.97749        3.50278
H         11.07266       -8.10442        2.70880
H          9.06757       -8.03521        1.23462
H          8.11405       -5.84496        0.52832
H          9.17029       -3.72223        1.30809
H         11.54752       -2.72064        0.37903
H         13.68002       -2.12989       -0.76272
H         15.82756       -2.19179        0.49637
H         15.83959       -2.84809        2.90021
H         13.70494       -3.43133        4.04166
