90

C          0.31280       -2.32660        4.46971
C          1.82522       -2.52494        4.59422
C          2.60090       -2.01063        3.37579
C          4.11624       -2.20907        3.50073
C          4.86784       -1.70760        2.25628
C          6.40888       -1.73146        2.38898
C          6.98596       -3.10873        2.74864
C          6.59298       -4.23088        1.77969
C          7.20634       -5.58860        2.13666
C          6.79188       -6.68790        1.15242
C          7.31819       -8.08178        1.50718
C          6.87467       -9.15447        0.50658
C          7.31594      -10.57481        0.87270
C          6.86354      -11.62636       -0.14590
C          7.24619      -13.06135        0.22945
C          6.79066      -14.10262       -0.79791
C          7.14322      -15.54432       -0.41535
C          6.67964      -16.57596       -1.44685
S          7.07550       -1.27292        0.66535
C          7.24511        0.33501        1.12315
N          7.04917        0.60647        2.38920
C          6.88604       -0.55044        3.30329
C          8.16477       -0.72354        4.13653
C          8.43052        0.48487        5.04723
C          9.59821        0.31594        6.04095
C         10.94973        0.17315        5.31394
C         12.16267       -0.07226        6.23400
C         13.42872       -0.30854        5.45745
C         14.41211        0.57783        5.21389
C         14.41019        2.00226        5.70352
C         15.62514        0.18514        4.41243
C          9.59204        1.48959        7.03070
H         -0.21191       -2.70486        5.35666
H         -0.08991       -2.85711        3.59469
H          0.05539       -1.26288        4.36058
H          2.04747       -3.59549        4.73895
H          2.19240       -2.01409        5.50043
H          2.38188       -0.93893        3.22632
H          2.23994       -2.52321        2.46756
H          4.32941       -3.27783        3.66025
H          4.47191       -1.69058        4.40816
H          4.54709       -0.67727        2.02717
H          4.56959       -2.31311        1.38779
H          6.64069       -3.36341        3.76398
H          8.08277       -3.04382        2.80510
H          6.90555       -3.96144        0.75299
H          5.49727       -4.33609        1.74146
H          6.89618       -5.87052        3.15779
H          8.30639       -5.50538        2.16266
H          7.13393       -6.41520        0.13845
H          5.68943       -6.72428        1.09769
H          6.97010       -8.35668        2.51826
H          8.42056       -8.05958        1.56132
H          7.26070       -8.89855       -0.49588
H          5.77390       -9.13184        0.41839
H          6.91699      -10.83488        1.86900
H          8.41536      -10.60651        0.97011
H          7.28897      -11.38132       -1.13511
H          5.76748      -11.56445       -0.26748
H          6.81292      -13.30752        1.21501
H          8.34110      -13.12782        0.35701
H          7.23765      -13.86674       -1.78005
H          5.69808      -14.02168       -0.93893
H          6.69644      -15.77759        0.56608
H          8.23456      -15.62622       -0.27604
H          5.58832      -16.54291       -1.58300
H          6.94481      -17.59784       -1.14282
H          7.13936      -16.39287       -2.42966
H          7.50413        1.12014        0.41038
H          7.16841        1.54885        2.75862
H          6.05454       -0.30791        3.98348
H          9.01935       -0.91638        3.47021
H          8.03672       -1.62083        4.76057
H          7.51232        0.70055        5.62139
H          8.63754        1.38798        4.44227
H          9.41499       -0.61398        6.61186
H         11.13886        1.08488        4.71895
H         10.90142       -0.65739        4.58998
H         11.95529       -0.95194        6.86750
H         12.28590        0.77566        6.92145
H         13.54179       -1.31381        5.03598
H         13.50929        2.26935        6.26831
H         14.49534        2.70062        4.85550
H         15.28320        2.19422        6.34744
H         15.57903       -0.86173        4.08665
H         16.54646        0.32064        5.00176
H         15.73443        0.82134        3.51901
H          9.82583        2.43769        6.52096
H         10.33191        1.35296        7.82853
H          8.61018        1.60045        7.51247
