116

C          0.09530       -0.37324       -1.07203
C          1.62140       -0.41235       -1.18729
C          2.20821        0.79267       -1.93118
C          3.73455        0.74973       -2.05643
C          4.33698        1.97171       -2.75742
C          5.86343        1.91216       -2.87177
C          6.49201        3.15637       -3.50714
C          8.01986        3.08294       -3.59422
C          8.67506        4.36422       -4.12025
C         10.20381        4.27227       -4.18779
C         10.88420        5.59838       -4.54418
C         12.40971        5.47995       -4.61859
C         13.10719        6.84243       -4.84181
C         14.59676        6.71279       -4.92041
N         15.13901        6.40767       -6.15205
C         16.44563        6.19927       -6.37980
C         17.36195        6.27552       -5.32989
C         16.86009        6.59239       -4.01894
C         15.46854        6.80628       -3.85739
C         17.78796        6.67373       -2.96081
C         19.14465        6.44383       -3.14064
C         19.63877        6.11485       -4.45904
C         18.75026        6.05870       -5.51365
C         21.07632        5.75080       -4.75192
O         21.97517        6.57006       -4.03412
C         23.29019        6.00191       -3.93235
C         24.08859        6.80876       -2.92338
C         25.48978        6.23673       -2.67980
C         26.19243        6.87626       -1.47707
C         27.62790        6.38469       -1.27222
C         28.29735        6.94299       -0.01219
C         29.77027        6.54371        0.12477
C         30.42072        7.02075        1.42743
C         31.90827        6.67061        1.53346
C         32.55432        7.11269        2.85134
C         34.04515        6.77689        2.93949
C         20.03880        6.58375       -1.93586
C         20.76602        5.27241       -1.58732
O         20.51508        4.23767       -2.21374
N         21.69812        5.33286       -0.59062
C         21.89880        6.48837        0.28670
C         21.07204        6.43814        1.57980
C         21.30775        7.65870        2.47579
C         20.53126        7.59364        3.79308
C         22.46109        4.12851       -0.27317
H         -0.29068       -1.24608       -0.52772
H         -0.38047       -0.36368       -2.06409
H         -0.24211        0.52731       -0.53704
H          1.92884       -1.33981       -1.69970
H          2.06572       -0.46481       -0.17861
H          1.90971        1.72069       -1.41186
H          1.75919        0.85431       -2.93836
H          4.02976       -0.16533       -2.59962
H          4.17844        0.65683       -1.04926
H          4.04758        2.88533       -2.20869
H          3.89634        2.07299       -3.76489
H          6.15131        1.01841       -3.45313
H          6.29520        1.76657       -1.86552
H          6.20307        4.04757       -2.92215
H          6.07206        3.30961       -4.51671
H          8.30976        2.23130       -4.23452
H          8.42801        2.85819       -2.59292
H          8.38942        5.20926       -3.46947
H          8.27524        4.60436       -5.12067
H         10.49372        3.49810       -4.91933
H         10.58782        3.92504       -3.21258
H         10.61374        6.35940       -3.79195
H         10.49588        5.97164       -5.50778
H         12.69089        4.78312       -5.42687
H         12.79766        5.03706       -3.68664
H         12.85679        7.52447       -4.01697
H         12.72429        7.31613       -5.76166
H         14.49503        6.34324       -6.94010
H         16.73505        5.97503       -7.40611
H         15.06678        7.04880       -2.87341
H         17.41971        6.91770       -1.96272
H         19.12075        5.83128       -6.51542
H         21.25520        5.82740       -5.84225
H         21.20736        4.69014       -4.46032
H         23.77803        6.00301       -4.92605
H         23.20160        4.94950       -3.60151
H         23.52859        6.81920       -1.97629
H         24.15827        7.85465       -3.26155
H         26.10852        6.36856       -3.58342
H         25.42026        5.14660       -2.51705
H         25.60029        6.67283       -0.56587
H         26.19581        7.97410       -1.59329
H         28.23045        6.65547       -2.15685
H         27.63656        5.28127       -1.22988
H         27.73987        6.60035        0.87787
H         28.21782        8.04453       -0.01120
H         30.33507        6.94490       -0.73497
H         29.85947        5.44512        0.05597
H         29.87984        6.58244        2.28509
H         30.29630        8.11428        1.52016
H         32.45169        7.13082        0.68913
H         32.03684        5.58005        1.41374
H         32.01925        6.63961        3.69239
H         32.41252        8.19939        2.97831
H         34.21684        5.69350        2.85439
H         34.47725        7.10664        3.89428
H         34.61265        7.26438        2.13266
H         19.43470        6.91636       -1.07905
H         20.78704        7.36312       -2.13833
H         21.67941        7.41247       -0.26563
H         22.97227        6.53060        0.53217
H         21.31779        5.51885        2.13582
H         20.00126        6.36232        1.32360
H         21.02973        8.57389        1.92585
H         22.38593        7.75115        2.68876
H         19.44809        7.51532        3.61900
H         20.70556        8.48868        4.40440
H         20.83310        6.72092        4.39024
H         22.26250        3.37740       -1.04310
H         22.17605        3.71430        0.70547
H         23.53406        4.37086       -0.25454
