47

Br         0.52761       -0.92281        0.45254
N          2.45627       -0.72293        0.30133
C          2.86686        0.72871        0.15300
C          2.89061        0.96912       -1.37656
C          2.81464       -0.43078       -2.03359
C          3.03194       -1.45634       -0.91754
C          4.48474       -1.82838       -0.58278
C          5.11712       -2.60950       -1.74577
C          6.31240       -3.50043       -1.37646
C          7.75521       -2.86652       -1.37751
C          8.14352       -1.72344       -0.36161
C          8.04629       -2.00752        1.18283
F          8.61596       -3.17100        1.50878
F          8.65350       -1.01169        1.84383
F          6.74435       -2.03274        1.57675
F          9.42751       -1.40038       -0.62722
F          7.36120       -0.62823       -0.62190
F          8.64320       -3.87383       -1.20966
F          7.93731       -2.32282       -2.61679
F          6.11036       -4.11545       -0.16566
F          6.37939       -4.48760       -2.32148
C          4.17216        1.71648       -1.76711
O          5.17104        1.16848       -2.16354
C          4.16858        3.27139       -1.57721
C          3.97718        4.11147       -2.89728
C          2.75065        3.75016       -3.80826
C          1.34410        4.00535       -3.17566
O          0.84186        3.19017       -2.43946
O          0.76428        5.15916       -3.49970
F          2.87940        4.48729       -4.95206
F          2.84645        2.42789       -4.13820
F          3.85665        5.41990       -2.54464
F          5.09371        3.95208       -3.64296
F          3.18188        3.61526       -0.68729
F          5.35719        3.63775       -1.04379
H          2.80503       -1.12861        1.18104
H          3.85946        0.80150        0.62260
H          2.17042        1.36846        0.70163
H          2.02467        1.58275       -1.66005
H          3.57573       -0.54269       -2.81387
H          1.83152       -0.56647       -2.49942
H          2.43799       -2.36932       -1.05313
H          4.48385       -2.46377        0.31626
H          5.08318       -0.93577       -0.36531
H          5.42759       -1.93667       -2.55584
H          4.38467       -3.31442       -2.16798
H          1.29998        5.65236       -4.15290
