68

C          1.85925        2.90984       -1.87959
C          2.52418        2.21616       -0.95388
C          3.06739        0.82488       -1.16069
C          4.59025        0.77226       -0.96549
C          5.32674        1.69119       -1.94639
O          6.72924        1.66594       -1.77081
C          7.26058        0.36807       -2.01517
C          6.65990       -0.64416       -1.04377
N          5.14300       -0.64935       -1.13702
C          4.53872       -1.68360       -0.19521
C          3.45709       -2.53653       -0.84937
C          3.22439       -3.77980        0.04354
O          4.16513       -4.28351        0.65024
N          1.93499       -4.22076        0.05271
C          1.36291       -5.33538        0.72119
C          2.10608       -6.23015        1.50569
C          1.44415       -7.29154        2.12666
C          0.06753       -7.47157        1.97856
C         -0.66469       -6.57698        1.19274
C         -0.02157       -5.51302        0.56615
C          8.77783        0.45613       -1.86394
O          9.31371       -0.80338       -2.20351
C         10.75495       -0.79941       -2.20934
C         11.26749       -2.12365       -2.74756
C         12.80046       -2.15083       -2.81708
C         13.36764       -3.42879       -3.44467
C         14.89790       -3.42818       -3.52747
C         15.48477       -4.67640       -4.19564
C         17.01358       -4.65523       -4.27454
H          1.46469        3.90313       -1.66767
H          1.67291        2.50956       -2.87870
H          2.68123        2.64970        0.03951
H          2.80474        0.47012       -2.17162
H          2.58139        0.15079       -0.43789
H          4.86251        1.05099        0.06444
H          4.99619        2.72252       -1.77577
H          5.05542        1.42188       -2.98960
H          7.03048        0.05659       -3.05644
H          6.91016       -0.38959       -0.00451
H          7.01116       -1.65971       -1.26570
H          4.90671       -0.94096       -2.09831
H          4.17333       -1.14451        0.68800
H          5.34701       -2.35064        0.12999
H          3.81377       -2.91063       -1.82571
H          2.52818       -1.97872       -1.02744
H          1.27151       -3.68479       -0.49944
H          3.17714       -6.09364        1.62363
H          2.02097       -7.98767        2.73614
H         -0.43287       -8.30540        2.47049
H         -1.73989       -6.70490        1.06678
H         -0.59527       -4.81358       -0.04748
H          9.03520        0.75089       -0.82598
H          9.14277        1.25536       -2.53616
H         11.12351       -0.61720       -1.18156
H         11.10675        0.03691       -2.84319
H         10.84368       -2.28482       -3.75221
H         10.90052       -2.94549       -2.11147
H         13.21763       -2.02643       -1.80275
H         13.15347       -1.28066       -3.39782
H         12.94717       -3.55360       -4.45807
H         13.02976       -4.30643       -2.86628
H         15.31879       -3.32703       -2.51139
H         15.23105       -2.53186       -4.08043
H         15.06473       -4.77472       -5.21111
H         15.15542       -5.57386       -3.64493
H         17.37217       -3.78595       -4.84591
H         17.40441       -5.55733       -4.76446
H         17.46518       -4.59958       -3.27283
