61

C          1.36794        2.12092        0.86499
C          2.83129        1.87389        1.24259
C          3.12944        0.39782        1.44443
O          4.52449        0.25520        1.77071
C          4.91538       -1.08259        1.95133
C          6.40392       -1.12954        2.21449
C          7.06347        0.10390        2.17689
N          8.38272        0.19753        2.39071
N          9.15955       -0.84877        2.64143
C          8.55932       -2.03122        2.67861
C          7.17911       -2.28223        2.47083
C          6.65442       -3.71372        2.52601
C          5.90877       -4.10408        1.20314
C          6.43084       -3.58955       -0.15591
C          7.83717       -4.08207       -0.52936
C          5.41996       -3.97960       -1.24558
C          7.82193       -4.72802        2.78912
O          7.38175       -6.07623        2.74738
C          5.67776       -3.86227        3.72266
C          9.10510        1.48999        2.27340
C          9.10008        1.91054        0.78457
O          8.25230        1.55914       -0.01007
O         10.12997        2.72537        0.55861
C         10.26205        3.27185       -0.80647
C         11.06758        2.33669       -1.68597
C          8.50992        2.58149        3.16874
H          1.18011        3.19242        0.72309
H          0.68187        1.76599        1.64719
H          1.10076        1.61152       -0.07188
H          3.08124        2.41398        2.16909
H          3.49767        2.26170        0.45647
H          2.91058       -0.18088        0.52662
H          2.51675       -0.02388        2.26414
H          4.68404       -1.69011        1.05534
H          4.37117       -1.54228        2.79848
H          6.51616        1.01725        1.96522
H          9.25482       -2.84033        2.88858
H          4.85468       -3.80492        1.30239
H          5.89444       -5.20514        1.19154
H          6.46909       -2.48448       -0.13242
H          7.90595       -5.17867       -0.47379
H          8.62267       -3.66038        0.11360
H          8.08139       -3.78598       -1.55852
H          5.34749       -5.07307       -1.34390
H          5.71955       -3.57738       -2.22262
H          4.41257       -3.60002       -1.02069
H          8.29404       -4.50655        3.76216
H          8.59166       -4.64156        2.01010
H          7.16798       -6.37702        3.64273
H          4.77460       -3.25168        3.62155
H          6.16576       -3.60311        4.67291
H          5.34505       -4.90758        3.77545
H         10.13159        1.25506        2.57745
H         10.77077        4.22893       -0.64453
H          9.25325        3.44854       -1.19983
H         12.05384        2.13316       -1.24971
H         11.22182        2.81134       -2.66487
H         10.54264        1.38730       -1.85146
H          7.50531        2.88345        2.84572
H          9.15868        3.46374        3.12001
H          8.46753        2.24189        4.21115
