54

N          4.51863       -1.32200       -1.19481
C          4.24910       -1.69757        0.19846
C          4.93545       -0.72217        1.16312
C          4.46592        0.71580        0.91745
N          5.04934        1.69836        1.86920
C          4.41705        1.94108        3.07143
N          4.92187        2.78124        3.97457
C          4.28909        2.84500        5.28420
O          2.88472        2.86070        5.12429
C          2.40003        1.68830        4.50141
N          3.25483        1.33122        3.34440
C          0.96237        2.02964        4.08226
C          0.18667        1.05778        3.18218
C         -0.10254       -0.34806        3.75773
S          0.90474       -1.59262        2.94182
O          0.45801       -1.78457        1.58086
O          2.30345       -1.28337        3.20489
O          0.59125       -2.91552        3.80391
C          6.25981        2.37048        1.55399
O          6.73983        3.26398        2.24137
O          6.76905        1.90964        0.41882
C          7.99215        2.57676       -0.06994
C          9.24949        1.97018        0.53051
C         10.51095        2.62381       -0.05641
C         11.80209        2.07056        0.55217
H          3.87641       -1.79745       -1.82763
H          5.45960       -1.60438       -1.47234
H          4.56047       -2.72524        0.46321
H          3.16015       -1.65446        0.35376
H          6.02809       -0.76578        1.02936
H          4.72676       -1.03872        2.19609
H          3.37204        0.80141        0.98217
H          4.73918        1.03030       -0.09241
H          5.73239        3.34038        3.67036
H          4.57472        3.78127        5.77409
H          4.60734        1.98408        5.90060
H          2.43158        0.82993        5.19988
H          3.03685        0.41595        2.93578
H          1.01457        3.00117        3.56925
H          0.40817        2.19945        5.01804
H          0.67191        0.97059        2.19739
H         -0.78098        1.53068        2.96948
H         -1.14114       -0.65852        3.58532
H          0.10847       -0.43410        4.83249
H         -0.00015       -3.49218        3.28038
H          7.90579        3.64788        0.15343
H          7.93855        2.42075       -1.15421
H          9.26170        0.88593        0.33476
H          9.23814        2.10598        1.62329
H         10.46534        3.71320        0.10653
H         10.52428        2.47801       -1.14915
H         11.84010        2.24589        1.63699
H         12.68346        2.55064        0.10757
H         11.89387        0.98772        0.38502
