87

C          1.02513       -0.03845       -0.93427
C          2.55348        0.04393       -0.93857
C          3.23178       -1.31841       -0.75760
C          4.76212       -1.25504       -0.78302
C          5.42782       -2.62230       -0.59858
C          6.95862       -2.57246       -0.64953
C          7.60322       -3.94827       -0.43467
C          9.11586       -3.88389       -0.50446
O          9.63110       -5.23860       -0.25173
C         10.95528       -5.35379       -0.10587
O         11.76706       -4.45426       -0.19862
C         11.31338       -6.79898        0.25679
C         12.82571       -7.00592        0.16529
C         13.35077       -7.08143       -1.29111
C         12.69625       -8.17103       -2.15961
C         13.31719       -8.27517       -3.55924
C         12.58506       -9.32662       -4.39700
S         13.42491       -9.49685       -5.99555
C         12.20515      -10.39494       -6.96994
S         10.70308      -10.79559       -6.36876
N         12.64587      -10.69779       -8.21734
C         13.97707      -10.31115       -8.71038
C         14.03460       -8.94083       -9.39465
C         11.77264      -11.43954       -9.14509
C         10.85064      -10.55322       -9.98594
O         14.78420       -7.14452       -1.27897
C         15.28144       -8.27647       -0.59031
C         14.83263       -8.28270        0.86548
N         13.32582       -8.24951        0.92636
C         12.70821       -8.42141        2.31186
C         11.46661       -9.29333        2.04331
O         11.41957      -10.01960        1.06055
O         10.55100       -9.16433        2.98650
C          9.30918       -9.96060        2.82950
C          8.31559       -9.23094        1.94887
C         13.60447       -9.11538        3.33985
H          0.56789        0.95244       -1.05977
H          0.65010       -0.45904        0.01087
H          0.65690       -0.67937       -1.74920
H          2.88946        0.72590       -0.13917
H          2.89591        0.49672       -1.88452
H          2.88308       -2.00566       -1.54879
H          2.89995       -1.76584        0.19633
H          5.11433       -0.56723        0.00568
H          5.09320       -0.81285       -1.73905
H          5.06134       -3.31471       -1.37642
H          5.10956       -3.05548        0.36594
H          7.32831       -1.86845        0.11584
H          7.27883       -2.16076       -1.62202
H          7.23392       -4.65784       -1.19249
H          7.30522       -4.34914        0.54786
H          9.54475       -3.21055        0.25142
H          9.47836       -3.56382       -1.49218
H         10.74301       -7.49335       -0.37182
H         10.93438       -6.93254        1.28024
H         13.32600       -6.15521        0.65186
H         13.13790       -6.09729       -1.73314
H         11.62745       -7.92898       -2.26266
H         12.72363       -9.16445       -1.67641
H         14.38638       -8.52170       -3.47637
H         13.26874       -7.29489       -4.05923
H         11.53911       -9.05314       -4.59921
H         12.57495      -10.30569       -3.89576
H         14.29656      -11.09828       -9.40790
H         14.67899      -10.34487       -7.86355
H         13.43581       -8.92145      -10.31315
H         15.07383       -8.70873       -9.66491
H         13.67146       -8.14841       -8.72814
H         11.17114      -12.12814       -8.53696
H         12.43543      -12.03394       -9.79076
H         10.20359       -9.94736       -9.33948
H         10.20660      -11.18780      -10.61026
H         11.41152       -9.88524      -10.65154
H         16.37683       -8.21110       -0.62424
H         14.98928       -9.22302       -1.08425
H         15.20353       -7.39624        1.39702
H         15.18227       -9.19002        1.37000
H         12.94702       -9.09005        0.42713
H         12.42309       -7.42904        2.68096
H          8.95446      -10.06852        3.85999
H          9.58827      -10.94115        2.42482
H          8.08976       -8.23190        2.34309
H          7.37834       -9.80366        1.92420
H          8.67697       -9.14104        0.91668
H         13.90010      -10.12353        3.02147
H         13.02720       -9.21386        4.26735
H         14.49913       -8.52574        3.57058
