62

Br         0.87861       -0.62987       -2.13394
C          2.14449       -1.46824       -0.89264
C          3.44573       -0.68130       -0.83496
C          4.49902       -1.33899        0.09704
C          5.04412       -2.64856       -0.43468
C          4.46256       -3.80261        0.07411
C          4.75804       -5.09190       -0.39517
C          5.65853       -5.29589       -1.42620
C          6.31135       -4.15273       -1.97959
C          6.03579       -2.81084       -1.47326
C          6.78927       -1.73429       -2.04636
C          6.84858       -0.29054       -1.62174
C          7.76556       -0.04600       -0.39696
C          9.24847       -0.34528       -0.63563
C         10.12795        0.13857        0.52828
N         10.02867        1.59420        0.67607
N          7.63813       -2.01875       -3.05619
C          7.88400       -3.25592       -3.58127
C          7.23946       -4.32770       -3.04415
C          5.92227       -6.70226       -1.92143
C          5.27240       -6.97203       -3.28697
O          5.76388       -6.62356       -4.34513
O          4.10313       -7.61072       -3.14308
C          3.36738       -7.92675       -4.37672
C          3.80061       -9.26342       -4.95678
C          2.94741       -9.65028       -6.17097
C          3.38777      -10.96949       -6.81511
C          2.52092      -11.36484       -8.01175
H          2.28057       -2.48952       -1.26413
H          1.63557       -1.49726        0.07773
H          3.23763        0.33413       -0.46753
H          3.84337       -0.57561       -1.85599
H          4.02136       -1.54856        1.06526
H          5.29081       -0.61653        0.31822
H          3.72882       -3.70056        0.87541
H          4.25636       -5.94883        0.05784
H          5.84522        0.09948       -1.43168
H          7.23798        0.29839       -2.46892
H          7.40901       -0.63696        0.46149
H          7.66952        1.01332       -0.11664
H          9.58639        0.16023       -1.55954
H          9.42152       -1.42448       -0.78079
H         11.15863       -0.23004        0.37219
H          9.76962       -0.32159        1.46244
H         10.62387        2.06987       -0.00319
H         10.34780        1.89051        1.59762
H          8.15442       -1.22876       -3.44302
H          8.58987       -3.30420       -4.40693
H          7.39998       -5.31204       -3.47799
H          5.52714       -7.41637       -1.18994
H          6.99938       -6.88971       -2.03088
H          3.52221       -7.10631       -5.09014
H          2.31839       -7.94560       -4.05455
H          3.71712      -10.03863       -4.17847
H          4.86063       -9.20514       -5.24933
H          2.99251       -8.84665       -6.92607
H          1.88889       -9.72796       -5.86811
H          3.36315      -11.76994       -6.05721
H          4.44026      -10.88080       -7.13194
H          1.47259      -11.51152       -7.71333
H          2.87100      -12.30055       -8.46815
H          2.53871      -10.58790       -8.79036
