71

C         10.04884        1.18518       12.03790
C         10.83947        0.28177       11.08834
C         10.03269       -0.15449        9.86054
C         10.80574       -1.06633        8.90213
C          9.98422       -1.49869        7.68314
C         10.73477       -2.43403        6.72918
C          9.89218       -2.86667        5.52477
C         10.60861       -3.84765        4.58989
C          9.72485       -4.30196        3.42319
C         10.39025       -5.26770        2.43281
N         10.91734       -6.50892        3.03532
C         12.34615       -6.60766        3.37094
C         12.92823       -7.94110        2.87388
C         12.80561       -8.04519        1.33943
O         13.29541       -6.85466        0.76500
C         13.26847       -6.86515       -0.67130
C         13.82820       -5.54793       -1.17948
C         13.83973       -5.46329       -2.71018
C         14.42924       -4.14811       -3.23405
C         14.42672       -4.05363       -4.76139
C         14.42710       -8.03655        3.27925
C         14.66448       -7.88983        4.70829
C         14.83738       -7.77788        5.90084
C         12.13653       -9.07047        3.54527
N         10.69885       -8.76243        3.57313
C         10.15011       -7.58451        3.22525
N          8.81102       -7.52043        3.02416
H         10.65132        1.48130       12.90742
H          9.14866        0.67774       12.41560
H          9.72081        2.10596       11.53305
H         11.18500       -0.61372       11.63247
H         11.75296        0.80362       10.75626
H          9.68968        0.74191        9.31434
H          9.11548       -0.67156       10.19429
H         11.14870       -1.96287        9.44847
H         11.72134       -0.55062        8.56330
H          9.65400       -0.60222        7.13001
H          9.06059       -1.99716        8.02666
H         11.06617       -3.33012        7.28348
H         11.65564       -1.93889        6.37519
H          9.58408       -1.97492        4.95248
H          8.95716       -3.33078        5.88584
H         10.93156       -4.72433        5.17725
H         11.52980       -3.38442        4.19604
H          9.39688       -3.42792        2.83728
H          8.79605       -4.74136        3.83162
H         11.25127       -4.78710        1.94949
H          9.69386       -5.54781        1.62773
H         12.49098       -6.51055        4.45751
H         12.85311       -5.77192        2.87884
H         11.75044       -8.21431        1.03890
H         13.38152       -8.92563        0.98908
H         12.22624       -7.01508       -1.01672
H         13.86739       -7.71839       -1.04317
H         14.85124       -5.42508       -0.78836
H         13.23029       -4.72025       -0.76231
H         12.81145       -5.58053       -3.09560
H         14.41677       -6.30920       -3.12256
H         15.46051       -4.04043       -2.85773
H         13.86251       -3.30198       -2.80964
H         15.00860       -4.87026       -5.21399
H         14.86408       -3.10630       -5.10369
H         13.40481       -4.11244       -5.16483
H         14.98247       -7.26725        2.72046
H         14.82392       -9.00803        2.93945
H         15.02283       -7.67923        6.95057
H         12.49287       -9.20948        4.57719
H         12.27551      -10.01888        3.00421
H         10.07053       -9.49795        3.87653
H          8.24831       -8.35827        3.09502
H          8.32794       -6.63637        3.12701
