63

N          2.14604       -2.89156       -1.42580
C          2.28050       -2.76461        0.03737
C          3.29254       -3.77223        0.59906
C          4.64811       -3.80280       -0.12579
C          5.35665       -2.44285       -0.14866
C          6.66421       -2.47098       -0.93947
O          7.41636       -1.25072       -0.86902
C          6.72558       -0.17508       -1.43314
N          6.23320       -0.53379       -2.78107
C          6.21069       -1.79867       -3.23730
N          5.94558       -2.05670       -4.54069
C          5.72280       -3.42737       -5.02369
C          6.88194       -3.97279       -5.87712
C          8.22029       -4.14823       -5.18601
Br         8.17971       -5.38121       -3.64704
Br         6.26024       -5.64893       -6.69335
C          5.69510       -0.95976       -5.49667
C          6.94543       -0.27973       -6.06818
C          6.56382        0.86742       -7.01080
N          7.74809        1.51856       -7.54804
C          7.42992        2.70529       -8.36947
C          8.66655        3.23944       -9.05171
C          9.72896        3.76452       -8.30247
C         10.87869        4.26797       -8.91059
C         10.97725        4.25657      -10.30523
C          9.93715        3.73851      -11.07443
C          8.78967        3.22683      -10.45393
O          7.75210        2.70004      -11.18736
N          6.44933       -2.78778       -2.35839
H          1.46273       -2.21493       -1.76865
H          1.76117       -3.81023       -1.65822
H          1.32769       -2.89256        0.58327
H          2.61374       -1.73555        0.24849
H          2.85691       -4.78374        0.55475
H          3.43743       -3.55459        1.66928
H          4.48761       -4.13692       -1.16164
H          5.29494       -4.55213        0.35841
H          5.59676       -2.10968        0.87313
H          4.67717       -1.69882       -0.59127
H          7.34317       -3.24020       -0.54680
H          7.44594        0.64862       -1.52798
H          5.87044        0.15104       -0.81544
H          5.96774        0.21954       -3.40349
H          4.81304       -3.42017       -5.63848
H          5.52206       -4.09634       -4.17754
H          7.05675       -3.31357       -6.74001
H          8.58452       -3.19290       -4.78548
H          8.96963       -4.56731       -5.86337
H          5.01950       -0.21954       -5.03268
H          5.10469       -1.40020       -6.31145
H          7.54762       -1.02472       -6.61311
H          7.59167        0.11261       -5.26814
H          5.99328        1.62750       -6.44731
H          5.86890        0.48906       -7.79551
H          8.28162        0.86323       -8.12409
H          7.02045        3.47275       -7.69036
H          6.65167        2.49485       -9.12500
H          9.64037        3.77097       -7.21437
H         11.68829        4.67333       -8.30441
H         11.86449        4.65356      -10.79937
H         10.00910        3.73026      -12.16532
H          7.96216        2.79135      -12.13078
H          6.82285       -3.68069       -2.69908
