77

C          6.91775       -1.34037       -3.84606
C          7.01032       -2.85424       -3.64108
C          8.44901       -3.38232       -3.65808
C          8.55201       -4.90125       -3.48943
C          9.99139       -5.42451       -3.51246
C         10.09022       -6.94945       -3.39514
C         11.52123       -7.50985       -3.44211
C         12.50570       -7.05129       -2.35073
C         12.18381       -7.48934       -0.90795
C         11.20674       -6.58474       -0.14155
C         10.98373       -6.99160        1.31891
N         12.21003       -6.96390        2.15485
C         13.04782       -5.90605        2.13564
N         14.39538       -5.96400        2.13454
N         14.97919       -4.73409        2.15813
C         13.96657       -3.90896        2.15680
N         12.75021       -4.56657        2.15018
C         11.44848       -3.93003        2.42808
C         10.94327       -4.26229        3.83668
C          9.65649       -3.49815        4.16777
P          8.83401       -4.02519        5.70765
O          7.68498       -3.18737        6.11425
O          8.54823       -5.56221        5.32481
C          7.79913       -6.42054        6.24578
C          6.30194       -6.31153        6.02463
O         10.02386       -4.11632        6.79311
C          9.95527       -3.35872        8.04619
C          9.36950       -4.20028        9.16296
C         12.62125       -8.18203        2.87935
C         13.40803       -9.22171        2.08913
O         14.69494       -8.66610        1.76619
H          5.87542       -0.99457       -3.82835
H          7.34949       -1.04143       -4.81261
H          7.46128       -0.79445       -3.06003
H          6.42922       -3.36749       -4.42547
H          6.53228       -3.12916       -2.68523
H          9.03020       -2.88284       -2.86123
H          8.93195       -3.08969       -4.60683
H          7.97256       -5.39601       -4.28792
H          8.06789       -5.20006       -2.54170
H         10.56020       -4.93707       -2.70095
H         10.48254       -5.10467       -4.44798
H          9.52286       -7.40358       -4.22370
H          9.57268       -7.28957       -2.48089
H         11.96338       -7.24998       -4.41789
H         11.47162       -8.61161       -3.42357
H         12.62892       -5.95551       -2.37923
H         13.49350       -7.46020       -2.61209
H         13.13213       -7.53113       -0.34781
H         11.78905       -8.52099       -0.91993
H         10.21663       -6.58124       -0.61943
H         11.55923       -5.54035       -0.19567
H         10.62511       -8.02889        1.36491
H         10.19591       -6.37702        1.78497
H         14.92701       -6.84059        2.02740
H         14.05244       -2.82688        2.16043
H         10.72985       -4.23347        1.65433
H         11.60988       -2.85020        2.30793
H         11.72501       -4.01516        4.57008
H         10.76209       -5.34389        3.91865
H          8.90014       -3.61334        3.37558
H          9.84415       -2.41932        4.27756
H          8.07786       -6.16639        7.27945
H          8.16895       -7.43364        6.03809
H          5.94300       -5.29856        6.24334
H          5.78262       -7.01712        6.68852
H          6.03925       -6.56222        4.98832
H          9.36139       -2.45004        7.87859
H         10.99563       -3.07684        8.25554
H          8.31124       -4.42443        8.97163
H          9.42609       -3.64715       10.11091
H          9.92218       -5.14196        9.28375
H         11.70305       -8.65198        3.25942
H         13.20780       -7.87288        3.75750
H         12.86975       -9.51230        1.17262
H         13.52232      -10.11419        2.72664
H         15.22703       -9.32403        1.29268
