66

C          0.56217        0.21073        1.72272
C          2.08276        0.18301        1.55001
C          2.61099        1.32648        0.67556
C          4.13285        1.30379        0.49848
C          4.65710        2.44925       -0.37540
C          6.18388        2.41508       -0.54414
C          6.67502        3.56634       -1.41421
N          8.18653        3.67333       -1.46560
C          8.84567        2.54467       -2.22985
C         10.36113        2.68336       -2.17893
C         10.86313        4.04076       -2.71448
C         10.17204        5.14914       -1.87988
C          8.64563        5.02370       -1.97495
C         10.63339        6.59702       -2.16808
C          9.90509        7.59493       -1.26177
O          9.38428        7.30949       -0.19540
O          9.96077        8.83208       -1.78306
C          9.38978        9.92224       -0.98453
C          7.93662       10.15976       -1.35158
C         12.14637        6.78401       -1.92227
Si        10.85427        4.16818       -4.66169
C          9.21953        4.79162       -5.38558
C         12.23141        5.31785       -5.23177
C         11.18456        2.44152       -5.34313
H          0.21585       -0.62122        2.35040
H          0.04748        0.13126        0.75373
H          0.23008        1.14541        2.19823
H          2.38709       -0.78116        1.10893
H          2.56811        0.22947        2.53953
H          2.30818        2.29237        1.11647
H          2.12663        1.28114       -0.31570
H          4.43565        0.33879        0.05606
H          4.61749        1.35005        1.48936
H          4.35947        3.41554        0.06601
H          4.17818        2.40336       -1.36830
H          6.47598        1.44503       -0.97509
H          6.65944        2.47987        0.45092
H          6.32081        4.52851       -1.01825
H          6.33164        3.48057       -2.45485
H          8.52140        3.60786       -0.49156
H          8.45252        2.60355       -3.25434
H          8.50742        1.60385       -1.78044
H         10.78935        1.84034       -2.73731
H         10.69152        2.54623       -1.13275
H         11.94083        4.07569       -2.48362
H         10.42356        4.97362       -0.81405
H          8.27467        5.11164       -3.00353
H          8.15431        5.76921       -1.34022
H         10.40731        6.87657       -3.20938
H         10.01908       10.78480       -1.23505
H          9.51042        9.67278        0.07711
H          7.82648       10.35512       -2.42630
H          7.56141       11.03732       -0.80733
H          7.31043        9.30083       -1.07657
H         12.39763        6.56099       -0.87544
H         12.43938        7.81921       -2.13231
H         12.74668        6.13226       -2.56588
H          8.96984        5.81384       -5.06825
H          8.36377        4.13872       -5.16050
H          9.31774        4.81494       -6.48112
H         12.05935        6.36718       -4.95934
H         12.29923        5.27259       -6.32851
H         13.20897        5.01516       -4.83119
H         10.36450        1.73611       -5.14728
H         12.11080        2.00861       -4.93913
H         11.30275        2.50264       -6.43453
