45

C          1.04271       -0.55552        0.13839
C          2.56182       -0.50126        0.31130
C          3.00619        0.66649        1.20803
C          4.52458        0.67103        1.39809
S          5.09232        2.19956        2.22167
C          4.46294        2.04553        3.95466
C          4.94598        3.21423        4.77262
C          4.42016        4.48732        4.49343
C          4.83033        5.60654        5.21288
C          5.77592        5.45410        6.22926
C          6.29163        4.19063        6.51884
C          5.89715        3.04802        5.80628
C          6.46283        1.70264        6.19533
C          6.88536        1.92272        2.45165
C          7.58838        1.87793        1.09883
O          7.07185        2.93665        0.32618
C          7.68385        3.06271       -0.97454
C          7.03969        4.23260       -1.68794
H          0.75458       -1.39078       -0.51210
H          0.65647        0.36781       -0.31592
H          0.53303       -0.69494        1.10223
H          3.04747       -0.40413       -0.67315
H          2.92212       -1.44967        0.74188
H          2.50059        0.58578        2.18295
H          2.68423        1.61947        0.75730
H          5.04159        0.69279        0.42707
H          4.88737       -0.19260        1.97456
H          4.76651        1.06600        4.34288
H          3.37165        2.05925        3.82643
H          3.67300        4.60086        3.70412
H          4.40945        6.58648        4.98919
H          6.10594        6.31868        6.80573
H          7.01569        4.07958        7.32769
H          7.12428        1.80437        7.06312
H          7.05927        1.24108        5.39445
H          5.67450        0.98721        6.47254
H          7.03633        1.00132        3.02869
H          7.20399        2.79141        3.04457
H          7.43394        0.89898        0.60231
H          8.67694        1.98222        1.27452
H          7.54352        2.11973       -1.53503
H          8.76987        3.22002       -0.84519
H          5.96214        4.06988       -1.82228
H          7.49100        4.35895       -2.68062
H          7.18578        5.16325       -1.12485
