36

C          5.19301       -1.10495        2.15642
C          4.37876       -0.59102        0.98811
O          4.80358        0.75897        0.69138
C          4.09710        1.35147       -0.37883
C          4.67687        2.76090       -0.54940
P          6.49245        2.75844       -0.48050
C          7.31801        1.62620       -1.77944
C          6.98699        1.90269       -3.26541
F          5.63991        1.77370       -3.44111
F          7.34097        3.18662       -3.56225
F          8.66219        1.77066       -1.59259
F          6.97552        0.34387       -1.48855
C          7.21317        4.42675       -0.64991
C          6.77069        5.48349        0.38829
C          6.98339        5.15313        1.86643
C          8.43951        4.79512        2.31659
Br         9.74385        6.14636        1.79085
F          8.49325        4.59354        3.63856
F          8.78842        3.60859        1.71674
Br         6.31347        6.62827        2.94524
F          6.21826        4.01820        2.16687
H          4.88640       -2.13133        2.39757
H          5.03844       -0.48542        3.04928
H          6.26490       -1.12099        1.91777
H          3.30030       -0.57837        1.22659
H          4.52228       -1.21640        0.08856
H          3.01668        1.43934       -0.16019
H          4.20548        0.76704       -1.31078
H          4.37654        3.40778        0.29023
H          4.36493        3.23475       -1.49020
H          6.93737        2.14409        0.70374
H          7.52091        1.20267       -3.92792
H          6.92400        4.77944       -1.65055
H          8.30384        4.28930       -0.65917
H          5.70091        5.70681        0.27760
H          7.30916        6.41119        0.15638
