76

C          0.46365        0.64114        0.00156
C          1.99062        0.53222       -0.00891
C          2.52796       -0.57379        0.90641
C          4.05545       -0.68860        0.89936
C          4.59539       -1.78972        1.81760
C          6.12326       -1.89963        1.80551
C          6.66985       -2.99698        2.72425
C          8.19874       -3.08958        2.71284
C          8.75815       -4.17917        3.63340
C         10.28877       -4.24101        3.62084
C         10.86604       -5.31339        4.55157
C         12.40246       -5.32623        4.53292
C         12.96438       -6.35958        5.51086
S         14.78682       -6.44373        5.41469
C         15.31858       -4.81482        6.30655
O         16.63840       -4.87065        6.62412
C         17.57049       -4.48494        5.56248
C         18.97329       -4.84183        6.01175
C         20.03588       -4.41092        4.99031
C         21.45349       -4.79788        5.41977
C         15.26453       -7.65281        6.69611
C         15.24309       -9.08686        6.16800
C         15.82206      -10.05932        7.20703
C         15.91024      -11.49485        6.68154
C         16.54460      -12.45940        7.68789
N         16.70800      -13.78359        7.08461
H          0.11193        1.44270       -0.66233
H          0.08539        0.85723        1.01198
H         -0.00620       -0.29617       -0.33216
H          2.43140        1.49755        0.29310
H          2.34069        0.35114       -1.03942
H          2.08725       -1.54096        0.60603
H          2.17964       -0.39294        1.93881
H          4.49504        0.28020        1.19578
H          4.40247       -0.87256       -0.13280
H          4.15715       -2.75943        1.52273
H          4.25109       -1.60548        2.85059
H          6.56060       -0.92883        2.09874
H          6.46757       -2.08458        0.77270
H          6.24155       -3.97043        2.42763
H          6.32264       -2.81630        3.75678
H          8.62403       -2.11359        3.00631
H          8.54601       -3.27144        1.68065
H          8.34781       -5.15972        3.33591
H          8.40754       -4.00324        4.66541
H         10.69391       -3.25536        3.90969
H         10.64043       -4.42454        2.59087
H         10.48720       -6.30701        4.25856
H         10.51176       -5.13763        5.58163
H         12.76970       -4.31992        4.79050
H         12.76093       -5.54545        3.51456
H         12.62881       -7.37755        5.26233
H         12.69379       -6.14948        6.55700
H         14.71037       -4.78397        7.22138
H         15.03291       -4.02225        5.59647
H         17.45534       -3.40183        5.38952
H         17.29813       -5.01851        4.63447
H         19.03164       -5.93018        6.17777
H         19.16869       -4.36266        6.98426
H         19.97865       -3.31985        4.84396
H         19.81093       -4.86425        4.01045
H         21.72204       -4.33330        6.37914
H         22.19221       -4.47522        4.67525
H         21.55359       -5.88686        5.53569
H         14.60987       -7.50027        7.56741
H         16.28338       -7.33579        6.96901
H         15.83568       -9.14502        5.24116
H         14.21563       -9.38748        5.90770
H         15.20973      -10.02908        8.12414
H         16.82934       -9.71465        7.49786
H         16.50515      -11.52603        5.75454
H         14.90174      -11.85611        6.41455
H         15.94860      -12.45472        8.62401
H         17.54818      -12.09100        7.95540
H         15.80599      -14.25005        6.97782
H         17.27533      -14.38558        7.68093
