91

N          1.93764        0.61146       -1.06069
C          3.31694        0.36136       -0.66966
C          3.54828        0.92936        0.73773
N          4.93507        0.70852        1.14425
C          5.41465        0.84808        2.39399
N          4.61640        1.26655        3.38877
C          5.06556        1.36513        4.78537
C          4.22040        2.42144        5.50293
O          4.59002        2.36771        6.85479
C          3.88982        3.30118        7.69566
C          4.38821        3.10614        9.11668
C          3.72281        4.03802       10.13527
C          4.23286        3.78973       11.55919
C          3.59549        4.68665       12.62396
C          4.10043        4.37913       14.03752
C          3.48120        5.25352       15.13173
C          3.95892        4.88274       16.53964
C          3.35068        5.74181       17.65206
C          3.81086        5.33633       19.05607
C          3.20923        6.19103       20.17674
C          3.67444        5.77347       21.57418
C          6.56025        1.69504        4.80849
C          7.34066        0.69552        3.96059
N          6.69477        0.56220        2.64808
C          8.79623        1.09818        3.71452
O          9.27296        0.21434        2.69833
C         10.60628        0.35022        2.29219
C         11.62843        0.26737        3.24127
C         12.97370        0.32502        2.86254
C         14.07613        0.21675        3.88365
C         13.26009        0.46363        1.49615
C         12.23344        0.53459        0.55846
C         10.87670        0.48322        0.91920
C          9.81501        0.57627       -0.16981
C          8.95619       -0.69611       -0.29970
C          8.96170        1.85547       -0.07190
H          1.62297       -0.05284       -1.76482
H          1.81212        1.54611       -1.44790
H          4.07764        0.78791       -1.35726
H          3.48331       -0.72557       -0.64224
H          2.86414        0.41541        1.43061
H          3.30460        2.00656        0.74665
H          5.61143        0.50863        0.41284
H          3.64388        1.46128        3.17561
H          4.89333        0.39996        5.29241
H          3.14054        2.19194        5.36889
H          4.40618        3.42301        5.06076
H          2.80080        3.11467        7.62439
H          4.07960        4.33231        7.33992
H          5.47973        3.25927        9.12866
H          4.21593        2.05638        9.40444
H          2.62818        3.89871       10.10866
H          3.90445        5.09007        9.85532
H          5.32865        3.92424       11.57910
H          4.05571        2.73252       11.82391
H          2.49797        4.56935       12.59399
H          3.79362        5.74553       12.38201
H          5.19913        4.48839       14.06305
H          3.90009        3.31758       14.26730
H          2.38084        5.17173       15.08669
H          3.71325        6.31424       14.93084
H          5.06001        4.95759       16.58239
H          3.72356        3.82082       16.73174
H          2.24918        5.68245       17.59819
H          3.60372        6.80222       17.47583
H          4.91287        5.39073       19.10911
H          3.55491        4.27600       19.23063
H          2.10860        6.13634       20.12288
H          3.46652        7.24974       20.00320
H          3.39941        4.73031       21.79126
H          3.22656        6.40351       22.35490
H          4.76777        5.85157       21.67109
H          6.90918        1.67094        5.84760
H          6.71228        2.71690        4.42415
H          7.33778       -0.29591        4.44634
H          7.29737        0.20661        1.90695
H          9.36244        1.00069        4.65449
H          8.86668        2.14524        3.36715
H         11.37478        0.12792        4.29401
H         13.67868        0.13301        4.90278
H         14.73718        1.09472        3.84837
H         14.70389       -0.66580        3.69290
H         14.29835        0.51052        1.16333
H         12.48404        0.63867       -0.49961
H         10.37874        0.65870       -1.11331
H          8.36830       -0.90321        0.60786
H          9.58519       -1.58028       -0.46698
H          8.26513       -0.61192       -1.15208
H          8.33340        1.87473        0.83057
H          8.30167        1.94675       -0.94767
H          9.59833        2.74971       -0.04016
