81

C          1.04504        1.19589       -0.19592
C          2.11680        0.67719        0.76551
C          3.28939        1.64680        0.94869
C          4.36361        1.13308        1.91206
C          5.50384        2.13070        2.14225
C          6.58153        1.59614        3.09564
C          7.61937        2.66943        3.41704
S          8.87990        1.94701        4.54694
C          9.54551        3.40853        5.17436
N          9.53106        4.62458        4.69104
N         10.10223        5.44099        5.65855
C         10.45643        4.67809        6.64490
O         10.14644        3.35099        6.42447
C         10.93665        5.13249        7.98785
O         12.33685        4.97107        8.22307
C         12.73034        3.61717        8.42634
C         12.02271        3.03247        9.63406
N         10.52987        3.11547        9.41975
C         10.07765        4.55447        9.15055
C          8.56052        4.57083        8.89036
C          7.97728        5.86895        8.30040
P          6.43513        5.44461        7.42504
O          6.56727        4.29196        6.49284
O          5.39076        5.18780        8.62648
C          4.47225        4.05260        8.61246
C          3.17947        4.37654        7.88751
O          6.07579        6.86245        6.79817
C          5.00777        7.02465        5.80997
C          5.21852        8.35072        5.11244
C          9.76670        2.43805       10.57318
O         10.19448        1.13322       10.75446
C          9.66970        0.20828        9.81527
O         10.26284        0.49408        8.56221
C          9.95748       -0.46461        7.52413
C         11.08486       -0.39753        6.49244
O         10.76967       -1.16905        5.34409
H          0.22021        0.47848       -0.30353
H          1.46039        1.37640       -1.19832
H          0.61518        2.14497        0.15838
H          2.50064       -0.29129        0.40235
H          1.66176        0.47031        1.74920
H          2.90552        2.61640        1.31289
H          3.74830        1.85521       -0.03355
H          4.77737        0.18477        1.52724
H          3.89734        0.88744        2.88255
H          5.08965        3.06801        2.55219
H          5.96570        2.39753        1.17674
H          7.06679        0.71361        2.64648
H          6.10996        1.25790        4.03257
H          7.17701        3.51599        3.95794
H          8.13332        3.03545        2.51920
H         10.78896        6.22096        7.98614
H         13.81242        3.63519        8.60635
H         12.54617        3.00297        7.52560
H         12.25290        3.60226       10.54505
H         12.27147        1.97664        9.78636
H         10.31430        2.52842        8.58587
H         10.34350        5.11570       10.05974
H          8.02705        4.36472        9.82799
H          8.32176        3.74742        8.19579
H          8.61651        6.31820        7.52959
H          7.78227        6.62812        9.06916
H          4.28998        3.83979        9.67408
H          4.98249        3.19416        8.15217
H          2.71338        5.28122        8.29922
H          2.47178        3.54392        8.00710
H          3.35129        4.51774        6.81211
H          4.04676        6.99669        6.34534
H          5.05230        6.18048        5.10603
H          5.19879        9.17911        5.83236
H          4.41462        8.51338        4.38120
H          6.17839        8.36711        4.58040
H          8.69909        2.49266       10.32020
H          9.99038        3.00857       11.48363
H          8.56550        0.30091        9.76372
H          9.95777       -0.79028       10.17920
H          8.99255       -0.22060        7.05078
H          9.89261       -1.47574        7.96305
H         12.03839       -0.70365        6.95583
H         11.19982        0.64244        6.15104
H         11.00626       -2.09527        5.50535
