57

C          2.58886        3.64560       -2.86295
C          2.98636        2.37489       -2.10763
C          3.76910        1.38542       -2.98299
C          4.14033        0.12761       -2.21322
O          4.82177       -0.84226       -3.08399
C          6.15909       -0.74808       -3.16031
O          6.85785        0.02801       -2.53552
C          6.71247       -1.69085       -4.19694
C          6.20489       -1.52263       -5.47776
C          6.75060       -2.14326       -6.63260
C          6.18278       -1.84960       -7.99186
C          6.39847       -0.38043       -8.45544
C          7.88153        0.05236       -8.43910
C          8.82143       -0.70287       -9.38549
C          5.72702       -0.16774       -9.81828
C          7.83676       -2.97289       -6.44559
C          8.35540       -3.21859       -5.14784
C          7.79709       -2.59324       -3.96706
C          8.33892       -2.97523       -2.68757
C          9.41416       -3.83955       -2.66240
N          9.94223       -4.35760       -3.80963
C          9.44202       -4.09279       -5.01809
C          7.79777       -2.57791       -1.33210
C          6.42719       -3.19188       -0.97090
C          6.40390       -4.71129       -0.97928
F          7.44585       -5.24406       -0.27802
F          5.26286       -5.18972       -0.44237
F          6.49409       -5.21510       -2.24952
H          2.04246        4.33768       -2.20941
H          1.93942        3.41527       -3.71990
H          3.47227        4.17687       -3.24564
H          2.08286        1.88048       -1.71427
H          3.59646        2.64331       -1.22954
H          4.68645        1.86739       -3.35756
H          3.16520        1.10372       -3.86114
H          3.25318       -0.41596       -1.86501
H          4.79871        0.34955       -1.36280
H          5.35519       -0.84862       -5.60096
H          5.09908       -2.04990       -7.97703
H          6.61695       -2.54212       -8.72810
H          5.87894        0.26817       -7.72734
H          8.26572       -0.02219       -7.40815
H          7.91439        1.12520       -8.68542
H          8.86542       -1.78033       -9.16758
H          9.84456       -0.31465       -9.29768
H          8.52385       -0.59490      -10.43700
H          6.14855       -0.82778      -10.58991
H          5.85779        0.86824      -10.15919
H          4.64822       -0.36963       -9.76686
H          8.31104       -3.45988       -7.29968
H          9.87293       -4.17614       -1.73592
H         10.73562       -4.99334       -3.73206
H          9.91217       -4.57818       -5.87203
H          7.71726       -1.48673       -1.26445
H          8.52554       -2.88882       -0.57141
H          5.62440       -2.85979       -1.64205
H          6.15755       -2.86952        0.04374
