106

C          1.27378        5.56482        0.27921
C          2.77129        5.28592        0.43047
C          3.48787        5.09739       -0.91064
C          4.98426        4.79497       -0.78355
C          5.67866        4.61824       -2.13687
C          7.17166        4.28712       -2.04698
C          7.81859        4.10684       -3.42319
C          9.31562        3.78281       -3.39578
C          9.89169        3.57807       -4.79995
C         11.39603        3.29395       -4.85234
C         11.89198        3.07221       -6.28433
C         13.39478        2.80892       -6.42159
C         13.81267        2.60346       -7.88091
C         15.30346        2.32663       -8.09828
C         15.65165        2.17585       -9.58233
C         17.11577        1.82733       -9.86629
C         17.38997        1.69045      -11.36879
C         18.81168        1.20142      -11.66150
C         19.14541        0.89924      -13.11201
C         18.22722        1.29151      -14.08144
C         18.40986        1.09406      -15.46279
C         19.55026        0.48043      -15.91364
C         20.53102        0.05318      -14.98164
C         20.35899        0.24561      -13.54726
C         21.42660       -0.22923      -12.68954
C         22.53491       -0.80382      -13.27408
N         22.63750       -0.95466      -14.61899
C         21.69661       -0.56795      -15.48025
C         22.00574       -0.85489      -16.93104
O         23.24646       -1.51975      -16.96472
C         23.68912       -1.93368      -18.27668
C         24.98518       -2.70530      -18.10390
C         25.55247       -3.23687      -19.42594
C         26.84599       -4.03583      -19.22708
C         27.44414       -4.57873      -20.52913
C         28.73596       -5.37012      -20.30875
C         21.47516       -0.20337      -11.17631
C         20.70007       -1.36402      -10.46596
C         21.59544       -2.55162      -10.08088
N         22.25740       -3.15536      -11.24533
O         20.00795       -0.89252       -9.31068
H          0.78602        5.70230        1.25415
H          0.76395        4.73426       -0.23221
H          1.09439        6.47443       -0.31356
H          2.91881        4.38567        1.05117
H          3.24754        6.11374        0.98306
H          3.34986        6.00390       -1.52671
H          2.99951        4.27937       -1.47016
H          5.12293        3.88230       -0.17743
H          5.47680        5.60800       -0.22128
H          5.54821        5.53821       -2.73375
H          5.16689        3.82024       -2.70366
H          7.30989        3.36791       -1.45103
H          7.69454        5.08747       -1.49425
H          7.66073        5.02360       -4.01872
H          7.28737        3.30477       -3.96625
H          9.48832        2.87663       -2.78884
H          9.86028        4.59741       -2.88644
H          9.67566        4.47292       -5.41056
H          9.35236        2.74775       -5.28990
H         11.62872        2.40665       -4.23756
H         11.94740        4.13389       -4.39444
H         11.62704        3.95383       -6.89494
H         11.33754        2.22658       -6.72867
H         13.67214        1.92071       -5.82693
H         13.96047        3.65288       -5.98949
H         13.52495        3.49675       -8.46350
H         13.22788        1.76946       -8.30795
H         15.59289        1.40963       -7.55577
H         15.90231        3.14303       -7.65841
H         15.39006        3.10997      -10.11025
H         15.00857        1.39353      -10.02344
H         17.38013        0.88447       -9.35768
H         17.77570        2.60100       -9.43645
H         17.19818        2.66137      -11.85535
H         16.66215        0.97801      -11.79462
H         18.97869        0.31394      -11.04069
H         19.52490        1.95714      -11.28759
H         17.31228        1.78259      -13.75690
H         17.64556        1.43088      -16.16301
H         19.70720        0.32396      -16.98009
H         23.35175       -1.20836      -12.68424
H         23.45679       -1.40071      -15.05112
H         22.03549        0.09410      -17.50307
H         21.20025       -1.47867      -17.36671
H         23.82986       -1.03873      -18.90939
H         22.90583       -2.56260      -18.73745
H         24.80213       -3.54615      -17.41453
H         25.72604       -2.04980      -17.61759
H         25.74281       -2.39548      -20.11397
H         24.80114       -3.87509      -19.92194
H         26.65090       -4.87643      -18.53778
H         27.59343       -3.39873      -18.72199
H         27.63802       -3.73896      -21.21749
H         26.69988       -5.21777      -21.03348
H         29.50804       -4.74883      -19.83164
H         29.14717       -5.73856      -21.25791
H         28.56592       -6.24242      -19.66038
H         21.08167        0.73908      -10.78687
H         22.53071       -0.25216      -10.87287
H         19.90025       -1.72041      -11.13758
H         20.97385       -3.25457       -9.49829
H         22.38365       -2.17999       -9.40328
H         21.58567       -3.70419      -11.78501
H         22.97062       -3.81542      -10.93422
H         20.65274       -0.71372       -8.60554
