92

C          0.74308        0.21552        0.38631
C          2.26915        0.12412        0.30523
C          2.82159       -1.23617        0.74587
C          4.34713       -1.33983        0.65178
C          4.89746       -2.71761        1.03500
C          6.42121       -2.82022        0.91544
C          6.97694       -4.21295        1.23095
C          8.50043       -4.30094        1.09531
C          9.06756       -5.70169        1.34903
C         10.59518       -5.75809        1.24614
C         11.17929       -7.15763        1.46886
C         12.71097       -7.15827        1.50636
C         13.31282       -8.54437        1.79452
C         14.83010       -8.44222        1.91817
N         15.53464       -9.59033        2.66392
C         17.04083       -9.43282        2.44661
C         17.29874       -9.98590        1.05001
C         16.19848      -11.06098        0.81797
C         15.23205      -10.93407        2.00986
C         16.78102      -12.47665        0.74862
O         17.66670      -12.51123       -0.34166
C         18.45681      -13.71134       -0.40679
C         19.48155      -13.55647       -1.51777
C         20.46198      -14.73300       -1.58551
C         21.52587      -14.56371       -2.67591
C         22.58093      -15.67413       -2.67762
C         23.65693      -15.49640       -3.75458
C         24.73536      -16.58188       -3.71689
C         15.15911       -9.45805        4.13861
C         15.01722      -10.69667        5.05883
C         16.33543      -11.34625        5.52742
F         17.12542      -10.42729        6.14839
F         16.10550      -12.34975        6.38122
F         17.05146      -11.85195        4.47837
O         14.26372      -10.28715        6.18082
H          0.38028        1.19942        0.05823
H          0.38663        0.05682        1.41504
H          0.26315       -0.54364       -0.24939
H          2.72021        0.91780        0.92491
H          2.59579        0.32798       -0.72874
H          2.36422       -2.03001        0.12883
H          2.50281       -1.44129        1.78323
H          4.80710       -0.56891        1.29507
H          4.66394       -1.09881       -0.37855
H          4.42956       -3.48563        0.39396
H          4.59249       -2.96142        2.06805
H          6.89129       -2.07830        1.58498
H          6.72390       -2.53501       -0.10773
H          6.50679       -4.95270        0.55925
H          6.68204       -4.50469        2.25440
H          8.96965       -3.58612        1.79426
H          8.79466       -3.96929        0.08410
H          8.62271       -6.41254        0.63084
H          8.75720       -6.04871        2.35028
H         11.03092       -5.06313        1.98573
H         10.91151       -5.38314        0.25735
H         10.82364       -7.84050        0.67862
H         10.79595       -7.56571        2.42079
H         13.04999       -6.45462        2.28637
H         13.10852       -6.77120        0.55299
H         13.03595       -9.24451        0.99185
H         12.85788       -8.93335        2.72055
H         15.11463       -7.53821        2.47557
H         15.29843       -8.38132        0.92856
H         17.53913      -10.02460        3.22029
H         17.29721       -8.37571        2.58490
H         18.29835      -10.43096        0.97954
H         17.25376       -9.20013        0.28660
H         15.67774      -10.86053       -0.12801
H         15.44514      -11.71315        2.74850
H         14.17006      -10.97495        1.75086
H         15.96862      -13.22527        0.64011
H         17.31280      -12.70654        1.69808
H         17.79772      -14.58197       -0.58568
H         18.95890      -13.86699        0.56866
H         20.03816      -12.61996       -1.34855
H         18.95641      -13.44091       -2.47952
H         19.90931      -15.67314       -1.75443
H         20.96292      -14.84651       -0.60792
H         22.02772      -13.58888       -2.54292
H         21.03485      -14.51773       -3.66344
H         22.08687      -16.65253       -2.81229
H         23.06470      -15.71562       -1.68551
H         24.12827      -14.50613       -3.63324
H         23.17893      -15.48250       -4.74848
H         25.25458      -16.59563       -2.74688
H         25.49356      -16.42217       -4.49541
H         24.30377      -17.58135       -3.87455
H         14.16732       -8.99807        4.17149
H         15.87463       -8.74514        4.57049
H         14.42353      -11.48493        4.57279
H         14.82357       -9.77420        6.79085
