76

C          0.21027        0.18910       -0.03000
C          1.63719       -0.02449        0.48117
C          2.47126        1.26159        0.50196
C          3.89427        1.06587        1.03475
C          4.73577        2.34610        1.01641
C          6.16372        2.15261        1.53710
C          7.01763        3.42194        1.45676
C          8.46001        3.22801        1.93595
C          9.33260        4.47156        1.74228
C         10.78305        4.28403        2.20564
C         11.66240        5.47616        1.79790
C         13.03921        5.67148        2.45719
C         13.47082        7.13910        2.29489
C         14.88414        7.52898        2.76447
C         15.89708        6.53008        2.17634
C         15.51081        5.07336        2.37848
N         14.12469        4.76579        1.84638
C         13.84478        3.29517        1.95401
C         13.41303        2.81257        0.57054
O         13.48535        3.53956       -0.40674
O         12.99814        1.55463        0.59778
C         12.57905        0.98642       -0.68233
C         15.02640        7.80701        4.28883
C         14.85509        6.64969        5.24708
C         13.59595        6.30688        5.76236
C         13.43294        5.20478        6.60497
C         14.52640        4.40919        6.97992
C         15.79213        4.77205        6.49087
C         15.95369        5.87329        5.64912
C         14.36266        3.24512        7.92195
H         -0.36068       -0.74950       -0.03794
H          0.20815        0.58771       -1.05563
H         -0.33652        0.90450        0.60230
H          2.14613       -0.77558       -0.14692
H          1.60524       -0.45400        1.49713
H          1.95356        2.02237        1.11283
H          2.51876        1.67912       -0.51982
H          4.40304        0.28818        0.43759
H          3.84776        0.67171        2.06531
H          4.23100        3.12578        1.61353
H          4.77695        2.73761       -0.01556
H          6.65436        1.34902        0.95936
H          6.12993        1.79507        2.58125
H          6.54143        4.22416        2.04674
H          7.02953        3.78322        0.41322
H          8.91335        2.38146        1.38922
H          8.46054        2.93471        3.00019
H          8.88816        5.32834        2.27699
H          9.32945        4.74852        0.67343
H         11.15194        3.33990        1.77596
H         10.80827        4.15639        3.30195
H         11.10392        6.39180        2.04958
H         11.77599        5.50782        0.70106
H         13.01530        5.38551        3.51902
H         12.71920        7.74386        2.82219
H         13.36791        7.40153        1.22716
H         15.09841        8.49989        2.29092
H         16.89404        6.67101        2.61916
H         16.01409        6.72361        1.09704
H         15.50125        4.79138        3.43946
H         16.19607        4.40411        1.84071
H         14.11066        4.92889        0.81330
H         13.08617        3.09871        2.71699
H         14.76474        2.77308        2.24834
H         12.28585       -0.03982       -0.45053
H         13.41476        1.00838       -1.39097
H         11.73262        1.55820       -1.07990
H         14.30013        8.59525        4.54101
H         16.02213        8.25100        4.44241
H         12.72721        6.92248        5.51494
H         12.44059        4.97022        6.99582
H         16.66890        4.19358        6.79025
H         16.95665        6.14180        5.30749
H         14.63873        3.53419        8.94797
H         15.01011        2.40324        7.64123
H         13.32516        2.88896        7.95050
