45

C          0.24418        1.00405        0.35558
C          1.71597        0.58784        0.40607
C          2.66188        1.74244        0.75509
C          4.13701        1.33215        0.79745
C          5.08658        2.48745        1.13024
C          6.56092        2.07248        1.15071
C          7.51487        3.23467        1.44794
C          8.98990        2.80733        1.45464
C          9.91220        3.98916        1.68553
O         11.31986        3.55088        1.78797
C         12.04893        3.50926        0.66130
N         13.02638        4.82048        0.58531
C         14.27326        4.59948       -0.40594
O         15.38237        5.21636        0.06585
C         15.58162        6.60821       -0.29999
C         12.33087        5.99168        0.32740
C         11.71596        6.98545        0.03630
H         -0.40578        0.15504        0.10434
H          0.07553        1.78573       -0.40017
H         -0.09198        1.40398        1.32379
H          2.01210        0.15919       -0.56645
H          1.84570       -0.22190        1.14397
H          2.37178        2.16979        1.73117
H          2.53006        2.55576        0.01945
H          4.42190        0.89682       -0.17663
H          4.27084        0.52487        1.53876
H          4.81311        2.91772        2.10942
H          4.94618        3.29822        0.39366
H          6.82749        1.62368        0.17787
H          6.70915        1.27789        1.90212
H          7.25867        3.68201        2.42334
H          7.36261        4.02998        0.69727
H          9.23815        2.32321        0.49418
H          9.16497        2.05826        2.24266
H          9.71690        4.48112        2.64681
H          9.83258        4.74260        0.88745
H         11.48910        3.54174       -0.28605
H         12.77753        2.68683        0.69587
H         13.44661        4.86453        1.53009
H         13.90921        4.95275       -1.38321
H         14.43279        3.51329       -0.38449
H         16.63891        6.81196       -0.10769
H         14.95812        7.26801        0.31787
H         15.35715        6.75744       -1.36587
H         11.17224        7.87791       -0.20431
