38

F          2.40259        3.05236        1.55113
C          2.32079        1.68484        1.84765
C          3.01878        0.89033        0.74161
C          4.47884        1.20823        0.65663
N          5.31124        0.94518        1.64394
N          6.50758        1.39364        1.20778
C          6.45680        1.92924       -0.01266
N          5.15569        1.82167       -0.39554
C          4.62291        2.30540       -1.70064
C          3.97321        1.16126       -2.51810
O          4.09576        1.47242       -3.89611
C          3.75615        3.55075       -1.53026
C          7.64631        2.45541       -0.75684
C          8.50403        3.34914        0.15959
O          8.94780        2.56022        1.27309
C          8.47475        1.29496       -1.37875
C          7.68715        0.35860       -2.29439
H          1.25789        1.40984        1.90242
H          2.79893        1.52228        2.82395
H          2.51658        1.07671       -0.21331
H          2.90966       -0.18258        0.96248
H          7.35033        1.38827        1.79024
H          5.51485        2.57243       -2.28118
H          2.92177        1.00364       -2.23267
H          4.51985        0.22337       -2.33078
H          3.24058        1.75925       -4.24885
H          2.85282        3.35918       -0.93858
H          3.45641        3.90735       -2.52409
H          4.31485        4.35886       -1.04080
H          7.28151        3.10411       -1.56789
H          7.91624        4.21714        0.50447
H          9.36091        3.71752       -0.42713
H          9.56985        3.07717        1.80798
H          8.94392        0.72559       -0.56345
H          9.29599        1.76611       -1.93969
H          6.91204       -0.19884       -1.74738
H          8.35788       -0.38798       -2.73694
H          7.20427        0.89408       -3.12475
