49

C          1.51094       -0.46875        0.48483
C          2.95462       -0.91000        0.61058
O          3.52368       -0.98042       -0.70947
C          4.86078       -1.41077       -0.71782
C          5.25610       -1.54382       -2.19084
C          6.72123       -1.83657       -2.51433
N          7.61773       -0.62707       -2.02269
C          8.62860       -1.20412       -1.07369
C          7.97395       -2.52240       -0.63847
O          7.27837       -2.92894       -1.83076
C          8.98320       -3.59265       -0.23922
C          8.49877       -4.74453        0.66739
C          7.34660       -5.58800        0.08246
F          7.65590       -6.05594       -1.16030
F          7.07040       -6.64596        0.86149
F          6.20358       -4.85171       -0.02795
O          9.58669       -5.57138        1.02528
C          6.95049       -2.04074       -4.03256
C          8.39366       -1.85571       -4.43185
C          8.83568       -0.59972       -4.89144
C         10.19155       -0.36914       -5.15331
C         11.11950       -1.39573       -4.96717
C         10.68747       -2.65407       -4.53436
C          9.33672       -2.88292       -4.26322
H          1.05132       -0.40349        1.47998
H          0.93373       -1.18498       -0.11396
H          1.44211        0.51872        0.01020
H          3.03001       -1.90317        1.09195
H          3.53900       -0.19408        1.22104
H          4.97558       -2.37798       -0.19156
H          5.50379       -0.67194       -0.17796
H          4.95145       -0.62506       -2.71929
H          4.66581       -2.35741       -2.63708
H          7.02851        0.08542       -1.57747
H          8.09668       -0.22721       -2.85380
H          8.82012       -0.50443       -0.25275
H          9.54797       -1.38560       -1.64346
H          7.25451       -2.33534        0.17891
H          9.79849       -3.11574        0.32510
H          9.42762       -4.00054       -1.16042
H          8.11438       -4.33583        1.61591
H          9.88731       -6.07024        0.24625
H          6.30289       -1.34684       -4.58719
H          6.59728       -3.05871       -4.24809
H          8.10586        0.18992       -5.09846
H         10.51602        0.60420       -5.52230
H         12.17465       -1.22269       -5.17957
H         11.40757       -3.46459       -4.41625
H          9.00444       -3.86724       -3.93060
