49

C          0.98823        5.54828        0.96696
C          2.49437        5.69562        1.19679
C          3.13706        4.44854        1.81474
C          4.64288        4.59203        2.05903
C          5.28104        3.35170        2.69319
C          6.78029        3.51398        2.96778
C          7.39839        2.28901        3.64941
C          8.89285        2.39921        3.95672
N          9.26077        3.53104        4.82973
C          9.71137        4.72094        4.40090
N         10.00313        5.76804        5.19809
C         10.36169        6.93876        4.38618
C         10.74142        6.28798        3.03025
N          9.98276        5.02022        3.11938
C         12.25816        6.09592        2.86144
C         12.76567        5.58234        1.50260
C         12.63428        4.06406        1.21855
C         11.31376        3.60644        0.80390
C         10.21617        3.23681        0.43990
Br         8.69764        3.40948        6.61988
H          0.55849        6.45737        0.52530
H          0.45692        5.35499        1.91055
H          0.76729        4.71276        0.28673
H          2.68397        6.56275        1.85226
H          2.99364        5.92536        0.24013
H          2.95381        3.58019        1.15808
H          2.63417        4.21493        2.76968
H          4.82311        5.46589        2.71051
H          5.14895        4.81768        1.10362
H          5.12020        2.47749        2.03933
H          4.76433        3.11891        3.64035
H          6.92716        4.40728        3.59998
H          7.30866        3.72209        2.02037
H          7.27722        1.39637        3.01431
H          6.85430        2.06400        4.58138
H          9.48537        2.51745        3.03574
H          9.26379        1.48919        4.44866
H          9.65046        5.82689        6.14755
H         11.20264        7.48023        4.83588
H          9.50464        7.62245        4.28815
H         10.34245        6.87616        2.19187
H         10.01891        4.33395        2.35623
H         12.63754        5.45793        3.67817
H         12.70518        7.09034        3.01990
H         13.83885        5.81372        1.45386
H         12.29553        6.14756        0.68300
H         12.96463        3.48412        2.09680
H         13.33392        3.80064        0.40887
H          9.27681        2.89853        0.05137
