47

O          1.78594        0.85810       -1.29981
C          2.94920        0.56622       -0.53032
C          3.28723       -0.89210       -0.80473
O          4.42441       -1.22341       -0.00296
C          4.84887       -2.55514       -0.14445
C          5.99109       -2.72799        0.86296
N          6.66073       -4.02290        0.74821
C          7.90599       -4.16700       -0.03340
C          7.95559       -5.67666       -0.36824
N          7.03932       -6.21160        0.65924
C          6.21853       -5.23937        1.10571
N          5.09476       -5.52400        1.80013
C          4.42605       -4.70579        2.76414
C          3.03495       -4.59953        2.72311
C          2.40980       -3.82465        3.70471
N          3.07107       -3.17045        4.66910
C          4.40529       -3.29047        4.69357
C          5.13468       -4.05243        3.77626
C          7.49997       -6.03734       -1.78976
C          7.58880       -7.53300       -2.11088
O          6.76480       -8.22343       -1.13145
C          7.13739       -7.85452       -3.52952
H          1.56403        1.79373       -1.18269
H          2.77243        0.70008        0.55221
H          3.80537        1.20147       -0.82048
H          3.51081       -1.03755       -1.87767
H          2.42711       -1.53537       -0.54080
H          5.20577       -2.76607       -1.17463
H          4.02672       -3.26635        0.07453
H          5.61573       -2.57242        1.88077
H          6.75052       -1.95654        0.68145
H          8.76694       -3.84496        0.57201
H          7.85559       -3.53969       -0.93321
H          8.96317       -6.07608       -0.18542
H          6.72880       -7.17926        0.52986
H          4.77417       -6.48677        1.73435
H          2.45188       -5.09855        1.94808
H          1.32196       -3.71933        3.70726
H          4.92429       -2.75976        5.49596
H          6.21802       -4.14562        3.86283
H          8.14129       -5.49847       -2.50388
H          6.46631       -5.68557       -1.95019
H          8.63776       -7.85811       -1.97376
H          6.77317       -9.17137       -1.33970
H          6.09567       -7.54363       -3.68902
H          7.20950       -8.93380       -3.72605
H          7.77308       -7.34644       -4.26764
