93

C         -1.01368       12.42703       -5.72992
C          0.45734       12.23376       -6.10295
C          1.32031       11.74953       -4.93373
C          2.79931       11.57870       -5.29189
C          3.66225       11.08893       -4.12528
C          5.15057       10.97427       -4.46907
C          6.01304       10.48820       -3.30047
C          7.51051       10.44305       -3.61996
C          8.36955        9.96459       -2.44574
C          9.87342        9.98967       -2.73476
C         10.72526        9.51727       -1.55320
C         12.23380        9.59967       -1.81064
C         13.06553        9.12470       -0.61383
C         14.58718        9.13648       -0.82474
C         15.12617       10.56599       -0.97828
N         16.59958       10.59356       -1.04425
N         17.35496       10.60957        0.03003
N         18.61188       10.45114       -0.34388
C         18.63292       10.32411       -1.68274
N         17.36534       10.40937       -2.14980
C         16.83017       10.45307       -3.53004
C         16.53836       11.87894       -4.01625
C         17.75507       12.81002       -4.18245
C         18.67982       12.35051       -5.32569
C         20.04851       13.05935       -5.36704
C         20.98911       12.43058       -6.35540
C         21.52886       12.98213       -7.45834
C         21.28624       14.39368       -7.92014
C         22.46230       12.18806       -8.33353
C         17.26400       14.25018       -4.38772
C         19.86287       10.05613       -2.46764
C         19.87176        8.61478       -3.01980
O         18.85344        8.00430       -3.28568
O         21.12412        8.19701       -3.18088
C         21.31279        6.83774       -3.72874
C         21.39221        5.81972       -2.60966
H         -1.60523       12.77706       -6.58705
H         -1.12495       13.16785       -4.92407
H         -1.46248       11.48653       -5.37722
H          0.86812       13.18348       -6.48561
H          0.53673       11.51313       -6.93416
H          0.92029       10.79041       -4.55967
H          1.22882       12.46230       -4.09507
H          3.19643       12.54238       -5.65751
H          2.89246       10.87351       -6.13655
H          3.28901       10.10845       -3.78103
H          3.54081       11.77609       -3.26940
H          5.51985       11.95856       -4.80781
H          5.27817       10.29144       -5.32738
H          5.67414        9.48526       -2.98737
H          5.84988       11.14789       -2.43013
H          7.84452       11.44951       -3.92863
H          7.68150        9.78629       -4.49087
H          8.06762        8.94086       -2.16418
H          8.16142       10.59489       -1.56341
H         10.17076       11.01686       -3.01167
H         10.08924        9.36156       -3.61677
H         10.45764        8.47733       -1.29922
H         10.47855       10.12010       -0.66201
H         12.48547       10.64420       -2.06882
H         12.48847        8.99172       -2.69697
H         12.77892        8.09137       -0.36423
H         12.81771        9.72725        0.27650
H         14.85069        8.53847       -1.71218
H         15.08831        8.67498        0.03891
H         14.88430       11.17688       -0.09866
H         14.74197       11.07517       -1.86957
H         15.92833        9.82718       -3.53880
H         17.57626        9.93150       -4.13883
H         15.80470       12.35248       -3.34405
H         16.02601       11.76625       -4.98594
H         18.33676       12.79495       -3.24004
H         18.16375       12.50044       -6.28886
H         18.86044       11.26213       -5.26243
H         20.49809       13.01333       -4.35569
H         19.90961       14.12720       -5.58177
H         21.25743       11.38857       -6.13832
H         20.59123       14.95485       -7.28479
H         20.88777       14.39807       -8.94717
H         22.23526       14.95189       -7.95723
H         22.61000       11.16744       -7.95772
H         23.44778       12.67625       -8.39884
H         22.07934       12.12586       -9.36470
H         16.67390       14.33290       -5.31276
H         18.10246       14.95302       -4.46250
H         16.63089       14.58141       -3.55243
H         20.72778       10.22639       -1.81591
H         19.95207       10.74061       -3.32534
H         22.25481        6.91834       -4.28308
H         20.48723        6.63270       -4.42103
H         22.19562        6.06747       -1.90437
H         21.61024        4.83269       -3.04011
H         20.44233        5.74779       -2.06487
