77

C          0.65011       -0.11106        0.15721
C          2.17937       -0.08619        0.09132
C          2.72959        0.81684       -1.01843
C          4.25995        0.84018       -1.08686
C          4.81921        1.74227       -2.19182
C          6.35019        1.75461       -2.25342
C          6.91916        2.65509       -3.35448
C          8.45026        2.65678       -3.41329
C          9.02438        3.55311       -4.51494
C         10.55528        3.54385       -4.57814
C         11.12827        4.43931       -5.68098
C         12.65916        4.43100       -5.74864
C         13.22095        5.33859       -6.84744
C         14.75210        5.35297       -6.91541
C         15.28900        6.28204       -8.00902
C         16.82054        6.32932       -8.07532
C         17.31253        7.28408       -9.17609
C         18.83660        7.36083       -9.20344
S         19.40059        8.44060      -10.58691
C         18.79616       10.01264      -10.10743
N         19.16665       10.73292       -9.09177
N         18.39386       11.87466       -9.12412
C         17.59205       11.75658      -10.17262
O         17.80406       10.57751      -10.85916
S         16.37066       12.80521      -10.76683
C         16.46836       14.15429       -9.51816
C         15.34588       15.14552       -9.81000
C         21.23181        8.67190      -10.29214
C         21.79924        9.52571      -11.37498
C         22.14712       10.80178      -11.17464
H          0.29141       -0.76441        0.96458
H          0.21544       -0.47834       -0.78464
H          0.24132        0.89453        0.33761
H          2.55856       -1.11181       -0.05584
H          2.58430        0.24723        1.06206
H          2.35369        1.84504       -0.87140
H          2.32492        0.48568       -1.99147
H          4.63304       -0.18883       -1.23420
H          4.66234        1.16824       -0.11198
H          4.45097        2.77290       -2.04393
H          4.41749        1.41653       -3.16768
H          6.71645        0.72331       -2.40161
H          6.75088        2.07759       -1.27619
H          6.55797        3.68802       -3.20520
H          6.51749        2.33442       -4.33203
H          8.80992        1.62310       -3.56072
H          8.85213        2.97793       -2.43598
H          8.67145        4.58873       -4.36440
H          8.61785        3.23597       -5.49162
H         10.90785        2.50827       -4.72856
H         10.96267        3.86161       -3.60208
H         10.77669        5.47513       -5.52875
H         10.71900        4.12316       -6.65674
H         13.01337        3.39775       -5.90942
H         13.06971        4.74269       -4.77214
H         12.85573        6.36868       -6.68933
H         12.81611        5.02183       -7.82467
H         15.12342        4.32804       -7.08803
H         15.15953        5.66419       -5.93781
H         14.90313        7.30257       -7.84096
H         14.89197        5.96333       -8.98828
H         17.21844        5.31735       -8.25883
H         17.22401        6.65253       -7.10103
H         16.89624        8.28818       -8.99559
H         16.93435        6.94889      -10.15518
H         19.30419        6.39038       -9.43356
H         19.26811        7.77176       -8.28003
H         17.46118       14.61257       -9.60317
H         16.37156       13.69575       -8.52658
H         15.42809       15.57604      -10.81703
H         15.40862       15.97066       -9.08844
H         14.35527       14.68289       -9.70635
H         21.60801        7.63805      -10.30528
H         21.32544        9.10467       -9.28820
H         21.93267        9.05689      -12.35296
H         22.02366       11.28674      -10.20427
H         22.58395       11.39655      -11.97636
