56

C          3.09386       -2.65794       -1.98829
C          3.90776       -2.37462       -0.96957
C          3.45596       -1.73278        0.31778
N          4.37592       -0.68536        0.81777
C          4.62094        0.44838        0.11908
N          5.73926        1.21273        0.28631
C          5.63654        2.28640       -0.56222
N          4.53846        2.23511       -1.25753
N          3.89384        1.08911       -0.83492
C          2.50790        0.90858       -1.28518
C          1.49638        1.28234       -0.20600
O          1.73220        2.64657        0.13056
C          1.17058        3.10613        1.34272
C          2.04335        2.76945        2.55774
F          3.34838        3.08705        2.34892
F          1.61872        3.43161        3.65128
F          2.01699        1.42936        2.85552
C          5.47750       -1.19055        1.70754
O          6.05116       -0.20035        2.49570
C          5.26908        0.21894        3.66002
C          5.93505        1.45032        4.24360
C          5.26300        1.94158        5.53306
C          5.98372        3.15105        6.14061
C          5.36694        3.64410        7.45368
C          6.12868        4.82051        8.07681
C          5.52131        5.30848        9.39437
H          3.45666       -3.16217       -2.88316
H          2.02615       -2.42482       -1.96062
H          4.96593       -2.64765       -1.02690
H          3.41570       -2.48265        1.12267
H          2.43577       -1.33528        0.23140
H          6.38936        1.04007        1.06133
H          6.38507        3.06743       -0.64211
H          2.35894       -0.11919       -1.63567
H          2.41263        1.58260       -2.14408
H          1.59803        0.62812        0.67496
H          0.47990        1.14418       -0.61808
H          0.15557        2.71591        1.52849
H          1.11889        4.20094        1.27215
H          6.29074       -1.60789        1.09024
H          5.02031       -1.99519        2.30572
H          5.26299       -0.61890        4.37735
H          4.23484        0.42721        3.34725
H          5.91916        2.25879        3.49324
H          6.99352        1.21757        4.44240
H          5.24128        1.12173        6.27136
H          4.20991        2.20063        5.32988
H          5.99332        3.97657        5.40716
H          7.04202        2.88841        6.31402
H          5.33422        2.81027        8.17660
H          4.31636        3.93687        7.28167
H          6.16487        5.65396        7.35447
H          7.17757        4.52187        8.24403
H          4.48540        5.65187        9.25649
H          6.09488        6.14612        9.81328
H          5.50589        4.50745       10.14824
