108

C         -0.74272       -4.82071       -2.28771
C          0.72020       -4.37164       -2.25923
C          1.46532       -4.63115       -3.57330
C          2.93694       -4.20730       -3.53683
C          3.69498       -4.47677       -4.84082
C          5.17923       -4.10486       -4.77002
C          5.96240       -4.42311       -6.04831
C          7.46270       -4.13682       -5.92725
C          8.28012       -4.56819       -7.14950
C          9.78939       -4.37517       -6.96757
C         10.63629       -4.97983       -8.09268
C         12.14225       -4.90833       -7.81641
C         12.99065       -5.68809       -8.83054
C         14.50134       -5.69745       -8.54530
C         14.83091       -6.34408       -7.19226
N         16.25501       -6.72369       -7.01679
C         16.44294       -8.05748       -6.46918
C         16.09571       -8.17112       -4.97618
N         16.88519       -7.15366       -4.17620
C         16.77635       -5.76461       -4.78218
C         17.11472       -5.78545       -6.28565
C         17.12680       -4.36874       -6.87549
C         18.33487       -3.52414       -6.41709
C         18.29777       -2.14039       -6.96464
C         19.14382       -1.60454       -7.85149
F         20.17097       -2.27286       -8.37363
F         19.07239       -0.36738       -8.30866
F         17.28046       -1.36199       -6.50229
C         16.51789       -7.13186       -2.70197
C         16.82473       -8.42141       -1.95304
C         16.43142       -8.28015       -0.47364
C         16.61665       -9.57058        0.33187
C         16.06495       -9.45252        1.75621
C         16.16343      -10.74246        2.57686
C         15.46105      -10.63120        3.93403
C         15.49917      -11.91505        4.76857
C         14.67737      -11.81535        6.05807
C         14.69917      -13.08554        6.91362
C         13.77751      -13.01094        8.13651
C         13.81101      -14.27069        9.00501
H         -1.24345       -4.62519       -1.32938
H         -0.82593       -5.89883       -2.49189
H         -1.30813       -4.29338       -3.07056
H          1.24746       -4.88805       -1.43847
H          0.77244       -3.29581       -2.01888
H          0.95028       -4.10318       -4.39539
H          1.40159       -5.70589       -3.82078
H          3.44366       -4.73580       -2.70935
H          3.00271       -3.13271       -3.29086
H          3.21502       -3.92297       -5.66683
H          3.60141       -5.54608       -5.10168
H          5.64332       -4.64167       -3.92300
H          5.27882       -3.03061       -4.53425
H          5.54174       -3.85184       -6.89409
H          5.81845       -5.48832       -6.30314
H          7.85395       -4.66031       -5.03609
H          7.62036       -3.06086       -5.73572
H          7.93832       -4.01794       -8.04300
H          8.07774       -5.63423       -7.35640
H         10.09167       -4.83885       -6.01066
H         10.01774       -3.30006       -6.86492
H         10.40729       -4.48133       -9.04961
H         10.34826       -6.03733       -8.22680
H         12.31624       -5.30095       -6.79882
H         12.46990       -3.85415       -7.79333
H         12.82678       -5.27422       -9.83777
H         12.62997       -6.73126       -8.87391
H         14.89296       -4.66948       -8.58660
H         15.02583       -6.26457       -9.32886
H         14.23559       -7.26823       -7.11221
H         14.47856       -5.69521       -6.36927
H         17.49363       -8.36149       -6.62421
H         15.82509       -8.77991       -7.01922
H         16.33502       -9.16356       -4.57622
H         15.03483       -7.95748       -4.78481
H         17.87683       -7.43129       -4.23938
H         17.45457       -5.12388       -4.20405
H         15.74527       -5.42681       -4.60758
H         18.14361       -6.18557       -6.38744
H         16.19215       -3.83896       -6.63448
H         17.16404       -4.47157       -7.96854
H         19.27310       -4.00235       -6.73368
H         18.37140       -3.44406       -5.31594
H         15.44655       -6.88748       -2.66538
H         17.07099       -6.28560       -2.26940
H         17.89842       -8.66369       -2.03660
H         16.26795       -9.26634       -2.38594
H         15.37302       -7.97251       -0.41563
H         17.01250       -7.46457       -0.01104
H         17.68543       -9.84262        0.36073
H         16.10351      -10.39903       -0.18705
H         15.00590       -9.14454        1.70145
H         16.58759       -8.63820        2.28739
H         17.22382      -11.01156        2.72313
H         15.71520      -11.57405        2.00472
H         14.40786      -10.34367        3.76597
H         15.90851       -9.80412        4.51276
H         16.54594      -12.16689        5.01285
H         15.11994      -12.75604        4.16157
H         13.63163      -11.57400        5.79634
H         15.03963      -10.96314        6.65970
H         15.73289      -13.28934        7.24427
H         14.40624      -13.95037        6.29182
H         12.74442      -12.82476        7.79646
H         14.05502      -12.13477        8.74705
H         13.50851      -15.15984        8.43151
H         13.13263      -14.18500        9.86498
H         14.82157      -14.45979        9.39676
