75

C          7.45135        8.57345       -4.82538
C          7.31070        7.13884       -5.33970
C          7.63445        6.08100       -4.27803
C          7.40306        4.64250       -4.75834
C          7.78998        3.57634       -3.74680
O          6.96809        3.75180       -2.57009
C          7.23062        2.87448       -1.49733
C          8.48656        3.26716       -0.66578
N          8.86796        4.68486       -0.80850
N         10.08554        5.00769       -1.18060
N         10.17276        6.32266       -1.25123
C          8.97405        6.82868       -0.92811
N          8.13254        5.81302       -0.63010
C          6.68932        5.89012       -0.33073
C          6.26430        5.22717        0.98044
O          6.65117        6.00595        2.13048
C          7.74057        5.54976        2.83017
O          8.49535        4.70116        2.40125
C          7.82018        6.21628        4.18364
S          9.44429        6.94844        4.57305
C          4.73979        5.08596        1.01189
O          4.31576        4.41978        2.20996
C          4.60471        3.08688        2.28734
O          5.11879        2.45571        1.38282
C          4.25373        2.54259        3.64847
S          5.65063        2.83068        4.80311
C          8.63061        8.29517       -0.94818
O          7.96895        8.72478        0.21664
C          8.78792        8.66903        1.41829
C          9.95956        9.64036        1.44745
C          9.57237       11.12016        1.36943
C         10.78886       12.05100        1.41277
C         10.42949       13.54021        1.43238
C         11.65761       14.45388        1.43132
H          7.23128        9.30630       -5.61267
H          8.47288        8.77621       -4.46779
H          6.75290        8.77208       -3.99668
H          7.96968        6.99164       -6.21047
H          6.28371        6.97957       -5.70726
H          7.00788        6.27028       -3.38939
H          8.68586        6.19735       -3.95726
H          7.98862        4.45709       -5.67309
H          6.34539        4.50519       -5.03406
H          8.86076        3.66525       -3.48422
H          7.62247        2.56336       -4.15146
H          7.37670        1.83335       -1.83463
H          6.34049        2.88304       -0.85439
H          9.39376        2.75675       -1.00781
H          8.35313        3.05622        0.40429
H          6.17281        5.43187       -1.18692
H          6.47526        6.96590       -0.29026
H          6.71176        4.23249        1.07968
H          7.55042        5.45784        4.93299
H          7.08991        7.03005        4.25070
H         10.14841        5.79380        4.51643
H          4.40076        4.52680        0.12727
H          4.24947        6.06700        1.04438
H          4.02986        1.47336        3.58125
H          3.40191        3.07973        4.08109
H          6.48651        1.92086        4.24940
H          7.95506        8.49039       -1.79634
H          9.57514        8.82787       -1.14831
H          9.15333        7.63776        1.56792
H          8.07294        8.89139        2.22152
H         10.68761        9.39150        0.65568
H         10.49164        9.43938        2.39228
H          8.89360       11.35886        2.20670
H          8.99411       11.30994        0.44983
H         11.43797       11.84321        0.54355
H         11.39719       11.81408        2.30341
H          9.81260       13.75073        2.32224
H          9.79318       13.77448        0.56211
H         12.30198       14.25913        2.30146
H         11.36982       15.51318        1.46380
H         12.26773       14.30314        0.52849
