44

C          7.69262       -4.26122        2.63251
C          7.94566       -3.51683        1.33674
O          6.68374       -3.04292        0.73754
C          6.03294       -3.91296       -0.05286
O          6.41096       -5.02802       -0.34549
C          4.68678       -3.30235       -0.50764
C          4.39701       -3.65271       -1.94754
C          4.25659       -4.99103       -2.33206
C          3.98700       -5.33053       -3.65066
C          3.83778       -4.32130       -4.61112
C          3.98518       -3.01037       -4.18347
N          4.26587       -2.66986       -2.89166
Si         4.45429       -0.79452       -2.53791
C          3.06918       -0.32276       -1.37156
C          6.19426       -0.51834       -1.91266
C          4.23350        0.06640       -4.18301
C          3.53288       -4.65548       -6.06080
C          3.29862       -3.50603       -6.92204
C          3.10213       -2.55364       -7.64105
C          3.57222       -3.80498        0.44360
H          8.65791       -4.53201        3.08241
H          7.13205       -5.18807        2.45790
H          7.14785       -3.63615        3.35182
H          8.45671       -4.14426        0.59621
H          8.51309       -2.59260        1.49673
H          4.76727       -2.21775       -0.39004
H          4.38657       -5.76200       -1.57636
H          3.88843       -6.38078       -3.93326
H          3.87540       -2.19422       -4.89463
H          3.17570       -0.70652       -0.34990
H          2.09440       -0.64510       -1.76376
H          3.04549        0.77589       -1.30638
H          6.40409       -0.92141       -0.91493
H          6.36237        0.56903       -1.87379
H          6.93013       -0.93384       -2.61576
H          3.23521       -0.06165       -4.62248
H          4.99165       -0.20957       -4.92814
H          4.35856        1.14254       -3.98387
H          2.65372       -5.32263       -6.08884
H          4.36882       -5.25434       -6.46407
H          2.92542       -1.73428       -8.30792
H          3.49042       -4.89846        0.41994
H          2.60248       -3.37583        0.16095
H          3.79943       -3.50034        1.47279
