38

F          2.32951        1.06151       -0.71247
C          2.21395        0.18112        0.36935
C          2.74829       -1.18882       -0.04437
C          4.20779       -1.08577       -0.48131
N          4.83400       -2.44566       -0.76577
C          4.33834       -3.05269       -2.06886
C          4.80666       -4.50134       -2.26634
C          4.06429       -5.13598       -3.39255
C          4.59025       -5.55779       -4.55014
F          5.88027       -5.43644       -4.84166
F          3.90785       -6.13605       -5.51261
F          2.73109       -5.29408       -3.18557
C          6.34554       -2.43196       -0.62994
C          7.07997       -1.65070       -1.71988
O          8.43240       -1.74589       -1.35241
C          9.33674       -1.22079       -2.34694
C         10.75061       -1.59352       -1.93839
O         10.98773       -2.99516       -2.00516
H          1.15307        0.11537        0.64799
H          2.78381        0.60823        1.21001
H          2.11291       -1.58090       -0.85195
H          2.64654       -1.86575        0.82162
H          4.81888       -0.62996        0.30999
H          4.31498       -0.47981       -1.38892
H          4.50142       -3.07202       -0.01799
H          4.67789       -2.39986       -2.88159
H          3.24353       -3.01309       -2.03019
H          4.61798       -5.08940       -1.34865
H          5.88192       -4.55570       -2.47978
H          6.68586       -3.47476       -0.62722
H          6.56862       -2.00090        0.35449
H          6.74109       -0.59591       -1.76430
H          6.91106       -2.09777       -2.71997
H          9.22685       -0.12240       -2.41179
H          9.09915       -1.66759       -3.32915
H         10.96965       -1.19039       -0.93403
H         11.44875       -1.12247       -2.64592
H         10.58289       -3.40952       -1.22809
