73

Br         2.53220       -0.54921       -1.72475
C          3.86985       -0.44706       -0.26701
C          3.21929       -0.34083        1.09762
C          2.44766       -1.57386        1.59296
C          1.03004       -1.75209        1.08678
C          0.52155       -3.03651        0.82258
C         -0.81220       -3.23234        0.43578
C         -1.42866       -4.58955        0.17541
C         -0.54802       -5.81381        0.44075
C         -1.33010       -7.12656        0.29980
C         -0.46666       -8.37667        0.50212
C         -1.26962       -9.68298        0.48125
C         -0.39735      -10.93663        0.61072
C         -1.19543      -12.24507        0.64290
C         -0.31011      -13.49401        0.71520
C         -1.09398      -14.81050        0.75210
C         -0.19149      -16.04820        0.79573
C         -0.96757      -17.37040        0.82498
C         -0.02256      -18.56809        0.87927
N         -0.68893      -19.87442        0.88260
C         -0.00973      -21.07273        0.83524
C         -0.93404      -22.10623        0.88836
C         -2.21706      -21.51429        0.97121
C         -2.03759      -20.13574        0.96827
C         -1.60945       -2.09808        0.29608
N         -1.11628       -0.85636        0.54151
C          0.16919       -0.67452        0.94780
C         -2.01835        0.30729        0.45450
C         -2.85494        0.50666        1.71030
O         -3.50975       -0.65293        2.22721
C         -2.49416       -0.01627        3.03605
Br         4.72325       -0.02283        2.35572
H          4.46490        0.44025       -0.49674
H          4.48398       -1.34830       -0.36554
H          2.63028        0.58069        1.17674
H          2.39980       -1.52467        2.69200
H          3.02733       -2.47857        1.35774
H          1.18455       -3.89638        0.92330
H         -1.78215       -4.61071       -0.87009
H         -2.34391       -4.65978        0.78840
H         -0.12561       -5.75978        1.45893
H          0.30873       -5.82003       -0.25466
H         -1.80511       -7.16758       -0.69567
H         -2.15777       -7.13035        1.03028
H          0.07240       -8.29852        1.46268
H          0.31181       -8.41197       -0.27988
H         -1.85291       -9.74028       -0.45443
H         -2.01155       -9.66554        1.29871
H          0.21598      -10.86261        1.52605
H          0.31848      -10.96793       -0.22945
H         -1.83681      -12.30461       -0.25393
H         -1.88419      -12.23230        1.50581
H          0.33731      -13.43124        1.60755
H          0.37339      -13.50346       -0.15204
H         -1.75275      -14.86951       -0.13182
H         -1.76398      -14.81442        1.62956
H          0.46448      -15.98882        1.68168
H          0.48044      -16.03814       -0.08005
H         -1.60965      -17.44080       -0.06805
H         -1.63612      -17.38071        1.70112
H          0.60664      -18.49822        1.78229
H          0.65590      -18.53948        0.01124
H          1.07361      -21.09263        0.76976
H         -0.70026      -23.16562        0.86600
H         -3.17297      -22.02498        1.02321
H         -2.76837      -19.33725        1.01569
H         -2.65492       -2.14495       -0.00197
H          0.45947        0.35683        1.13151
H         -2.67972        0.15622       -0.40994
H         -1.41036        1.20067        0.25977
H         -3.48047        1.40586        1.65448
H         -1.58082       -0.60284        3.17245
H         -2.86578        0.49439        3.92797
