66

C          5.20900        4.61822        2.07640
C          5.60572        4.32499        0.62768
C          6.10526        2.88939        0.41936
C          6.49610        2.60130       -1.03675
C          6.96370        1.16620       -1.21802
O          7.22755        0.88074       -2.64364
C          8.45830        1.07718       -3.09395
O          9.41289        1.47455       -2.43562
C          8.58184        0.69405       -4.57491
N          9.27814        1.68592       -5.39011
C         10.62464        1.85595       -5.43459
N         11.36250        1.43515       -4.40630
C         12.82620        1.39849       -4.37356
C         13.32473        0.67379       -3.11205
C         12.89604       -0.80763       -3.10597
C         13.18335       -1.54344       -1.79450
C         14.84290        0.85939       -2.99593
N         11.19797        2.41377       -6.51652
C         10.51437        2.83597       -7.74319
C         10.01087        4.28782       -7.68086
C          9.33922        4.77325       -8.97159
C          7.97238        4.12154       -9.25316
N          7.27923        4.73459      -10.36769
C          7.41877        4.37617      -11.69441
C          6.71640        5.28574      -12.46122
C          6.13929        6.23565      -11.57179
C          6.50632        5.87728      -10.28916
H          4.84183        5.64735        2.18735
H          6.06241        4.49488        2.75934
H          4.41056        3.94336        2.41767
H          6.39021        5.03160        0.30836
H          4.74416        4.50638       -0.03660
H          5.32021        2.18200        0.73723
H          6.97024        2.70329        1.07871
H          7.29868        3.28849       -1.34925
H          5.63436        2.78349       -1.69858
H          6.18303        0.44246       -0.95473
H          7.87844        0.95158       -0.65068
H          7.58718        0.53858       -5.00575
H          9.12186       -0.26578       -4.62043
H          8.71466        2.23751       -6.02517
H         10.84371        1.36979       -3.51007
H         13.23138        2.42731       -4.38157
H         13.19256        0.88153       -5.27698
H         12.85254        1.17397       -2.24513
H         13.39859       -1.32376       -3.94255
H         11.81573       -0.87251       -3.31683
H         14.25859       -1.60749       -1.58190
H         12.79946       -2.57104       -1.83372
H         12.70292       -1.04214       -0.94134
H         15.36998        0.36852       -3.82841
H         15.22529        0.42853       -2.06313
H         15.11918        1.92342       -2.99924
H         12.15670        2.72603       -6.39517
H          9.70549        2.11844       -7.94498
H         11.23366        2.72091       -8.56659
H         10.87017        4.93769       -7.45362
H          9.31451        4.40559       -6.83133
H         10.00464        4.61283       -9.83470
H          9.18886        5.85984       -8.90092
H          7.32841        4.20739       -8.36154
H          8.07661        3.04737       -9.47327
H          7.99464        3.50017      -11.97705
H          6.61559        5.26084      -13.54138
H          5.50950        7.07808      -11.83883
H          6.27463        6.32752       -9.32882
