56

C          9.49100        1.39203       -2.42410
C          8.27257        1.14846       -1.53038
C          8.61998        0.41082       -0.23113
C          7.40829        0.18257        0.67977
C          7.77660       -0.55012        1.97326
C          6.56086       -0.73396        2.92188
C          6.96812       -1.46243        4.15877
C          6.93549       -2.87281        4.23179
N          7.34401       -3.56866        5.27883
N          7.82548       -2.89621        6.33183
C          7.92627       -1.54206        6.40966
C          7.47633       -0.82550        5.28770
Si         8.57414       -0.45790        7.90831
C          9.54428        0.93339        7.10093
C          7.00491        0.16829        8.72804
C          9.70105       -1.35916        9.10942
C          8.19615       -3.80919        7.44728
C          7.11307       -3.90565        8.52834
C          5.75413       -4.38833        8.00846
C          4.74438       -4.54178        9.15026
S          3.11095       -4.89657        8.44656
O          2.67401       -3.74018        7.69565
O          3.11970       -6.21514        7.85949
Cl         1.97491       -4.98043       10.18123
H          9.21025        1.91995       -3.34500
H          9.96918        0.44582       -2.71705
H         10.24916        2.00156       -1.91061
H          7.51589        0.56886       -2.08495
H          7.79563        2.11179       -1.28354
H          9.38682        0.98451        0.31868
H          9.08458       -0.56031       -0.47573
H          6.63974       -0.39427        0.13787
H          6.94522        1.15291        0.92764
H          8.56379        0.00630        2.50956
H          8.20444       -1.53884        1.73739
H          5.77046       -1.29384        2.39975
H          6.15010        0.25204        3.18494
H          6.55645       -3.48185        3.40826
H          7.53589        0.26337        5.30698
H          8.92489        1.60777        6.49565
H         10.36210        0.55292        6.47404
H          9.99480        1.54130        7.89900
H          6.36247        0.70231        8.01492
H          7.27330        0.87236        9.52898
H          6.41399       -0.64024        9.17807
H         10.57038       -1.81450        8.61556
H          9.19904       -2.11456        9.72565
H         10.09307       -0.59436        9.79741
H          9.14192       -3.45482        7.86804
H          8.36076       -4.78074        6.96933
H          6.99779       -2.93535        9.03599
H          7.50406       -4.60213        9.28720
H          5.86581       -5.34661        7.48020
H          5.35229       -3.66758        7.27999
H          4.61936       -3.61940        9.73394
H          4.97974       -5.37574        9.82469
