78

C          0.94774       -0.40674        0.35432
C          2.46805       -0.31246        0.20798
C          2.91907        0.14294       -1.18453
C          4.43994        0.25072       -1.32918
C          4.90062        0.70296       -2.71868
C          6.42170        0.83567       -2.83627
C          6.89976        1.26954       -4.22640
C          8.40345        1.56053       -4.26698
C          8.92496        1.86804       -5.66277
O         10.24791        2.42138       -5.53160
C         11.07415        2.27859       -6.67132
C         12.51073        2.70377       -6.30131
C         12.91303        1.92462       -5.00929
C         12.63486        2.64443       -3.70164
N         13.24326        4.01957       -3.80567
C         12.51491        4.91936       -4.79127
C         12.59767        4.26541       -6.18344
C         11.12773        5.30089       -4.25895
C         10.62167        6.56170       -4.98158
C          9.61443        7.43391       -4.21743
C          8.07748        7.17967       -4.43783
C          7.42642        5.80481       -4.03135
C          7.48168        5.34603       -2.52801
F          7.10384        6.32634       -1.70099
F          6.66131        4.29334       -2.36977
F          8.73484        4.94981       -2.19614
F          6.11979        5.88286       -4.37336
F          8.00893        4.82005       -4.78255
F          7.39588        8.15901       -3.79868
F          7.85218        7.29715       -5.78123
F          9.86003        7.41316       -2.86614
F          9.79652        8.72814       -4.63209
C         13.42584        2.22951       -7.46553
C         14.87156        2.75885       -7.60431
C         15.84601        2.61088       -6.41732
O         15.60310        3.58201       -5.35293
O         15.48239        2.13085       -8.73308
H          0.65931       -0.73683        1.36157
H          0.52108       -1.12247       -0.36372
H          0.46736        0.56622        0.17373
H          2.92225       -1.29223        0.43304
H          2.86803        0.38507        0.96335
H          2.45946        1.12036       -1.41491
H          2.52765       -0.55905       -1.94195
H          4.89933       -0.72542       -1.09354
H          4.82720        0.95565       -0.57190
H          4.43213        1.67266       -2.96265
H          4.53296       -0.00956       -3.47768
H          6.89643       -0.12581       -2.57320
H          6.77886        1.56246       -2.08600
H          6.34961        2.17276       -4.54107
H          6.64689        0.48688       -4.96210
H          8.96676        0.70592       -3.85653
H          8.62350        2.42062       -3.61421
H          8.27472        2.58937       -6.18931
H          8.97160        0.94988       -6.27599
H         10.70499        2.88691       -7.52130
H         11.07991        1.21986       -6.99938
H         13.97968        1.67186       -5.03353
H         12.37207        0.96880       -4.99223
H         13.11053        2.13925       -2.85142
H         11.56439        2.75942       -3.50331
H         14.22138        3.89986       -4.16651
H         13.27341        4.47564       -2.88672
H         13.12900        5.83362       -4.81228
H         13.54369        4.60094       -6.61890
H         11.81118        4.70571       -6.81147
H         11.20861        5.52436       -3.18350
H         10.42631        4.46794       -4.38294
H         10.19155        6.32484       -5.96389
H         11.46428        7.24638       -5.16495
H         12.93897        2.46710       -8.42507
H         13.47460        1.12657       -7.41671
H         14.85441        3.82829       -7.86995
H         16.85258        2.77530       -6.82349
H         15.81619        1.59298       -5.99261
H         16.45148        3.99984       -5.14360
H         15.33482        1.17144       -8.68422
