81

O          3.57199        0.21586        0.31914
C          4.40533       -0.68161        0.57871
N          4.19379       -1.62474        1.52405
C          3.07137       -1.86487        2.36369
C          3.17536       -2.96491        3.23052
C          2.12575       -3.28279        4.08795
C          0.96355       -2.50619        4.08795
C          0.86613       -1.41289        3.22498
C          1.90947       -1.07870        2.35906
C          5.72895       -0.81459       -0.17969
C          6.51237        0.50689       -0.37263
C          5.94220        1.43568       -1.39433
N          4.60847        1.74290       -1.46984
C          4.44297        2.61440       -2.48283
N          5.67664        2.82136       -2.97813
N          6.62207        2.08093       -2.32115
C          6.06891        3.62088       -4.14503
C          6.06793        2.71563       -5.38711
C          6.70568        3.28551       -6.65887
C          5.77998        4.06597       -7.66771
C          5.08790        5.41753       -7.24756
C          5.99226        6.64252       -6.85360
F          6.92049        6.87404       -7.79309
F          5.21488        7.72868       -6.72844
F          6.60957        6.41738       -5.67478
F          4.32735        5.80195       -8.29811
F          4.25431        5.15736       -6.19007
F          6.49613        4.30234       -8.79091
F          4.75073        3.21804       -7.97913
F          7.79046        4.06642       -6.36312
F          7.16554        2.22056       -7.39118
C          3.18387        3.27496       -2.90360
C          2.86185        4.50154       -2.00592
C          1.95285        5.48511       -2.74767
S          1.75764        7.07727       -1.90362
C          3.26915        7.91250       -2.38781
S          4.50790        7.20492       -3.24988
N          3.28343        9.21252       -1.98057
C          2.22622        9.78267       -1.17391
C          1.30965       10.66128       -1.76257
C          0.30976       11.23621       -0.97808
C          0.22765       10.93911        0.38596
C          1.15115       10.06758        0.96961
C          2.15724        9.48981        0.19334
C          4.33722       10.11831       -2.38566
C          5.22524       10.60852       -1.42602
C          6.21008       11.52280       -1.80712
C          6.30123       11.94581       -3.13539
C          5.40294       11.45418       -4.08793
C          4.41692       10.54096       -3.71625
H          4.94817       -2.29403        1.65098
H          4.08213       -3.57525        3.23137
H          2.21753       -4.13925        4.75593
H          0.13955       -2.75341        4.75705
H         -0.03799       -0.80352        3.22001
H          1.82625       -0.22608        1.69267
H          5.49995       -1.25939       -1.16221
H          6.38928       -1.52671        0.33329
H          7.53906        0.27729       -0.68404
H          6.58622        1.03998        0.58922
H          3.93566        1.24400       -0.79518
H          7.07208        4.00507       -3.93233
H          5.38390        4.47341       -4.21242
H          5.05070        2.37901       -5.63026
H          6.66347        1.82045       -5.15759
H          2.36513        2.54150       -2.88380
H          3.29090        3.60642       -3.94563
H          3.79952        5.02080       -1.76637
H          2.40309        4.17161       -1.06292
H          0.92640        5.10291       -2.85135
H          2.35915        5.69905       -3.74739
H          1.38632       10.88761       -2.82611
H         -0.40750       11.91876       -1.43451
H         -0.55388       11.39222        0.99634
H          1.09488        9.84345        2.03519
H          2.88897        8.81418        0.63708
H          5.14444       10.27596       -0.39098
H          6.90679       11.90646       -1.06129
H          7.06904       12.66227       -3.42798
H          5.46713       11.78627       -5.12455
H          3.71483       10.14743       -4.45128
