59

C          0.87354       -0.78110        0.21260
C          2.40016       -0.71204        0.29050
C          2.91773       -0.23287        1.65158
C          4.44615       -0.18787        1.73540
C          4.97502        0.28489        3.09431
C          6.50712        0.29506        3.15072
C          7.04591        0.75613        4.49176
O          8.49419        0.73689        4.40486
C          9.14818        1.16686        5.54450
N         10.60676        1.25734        5.17783
C         10.88034        2.10507        3.95475
C         11.18472        1.06674        2.86624
O         11.91530        0.07103        3.62959
C         11.24996       -0.15314        4.82044
C         12.25763       -0.62472        5.85826
C         11.71540       -0.79229        7.27249
C         12.77021       -1.42547        8.20230
F         13.94340       -0.76140        8.18251
F         12.30655       -1.40702        9.48210
F         12.99721       -2.70925        7.85353
O         11.34564        0.50457        7.75007
C         12.06650        1.57593        1.73993
C         12.49239        0.51205        0.70298
C         11.40497        0.12442       -0.30355
O         10.25719       -0.38064        0.39135
O         13.64859        0.95496       -0.00439
H          0.53767       -1.12714       -0.77413
H          0.41832        0.20415        0.39160
H          0.46613       -1.47424        0.96345
H          2.78074       -0.04078       -0.49800
H          2.82597       -1.70613        0.07202
H          2.52777       -0.89517        2.44423
H          2.50797        0.76961        1.86660
H          4.83712        0.47473        0.94347
H          4.85218       -1.19154        1.51887
H          4.57832       -0.36941        3.88927
H          4.58802        1.29615        3.30725
H          6.90810        0.95586        2.36503
H          6.89714       -0.71450        2.94369
H          6.72271        0.08863        5.31062
H          6.71641        1.78352        4.73209
H          9.07090        0.46833        6.39774
H          8.83300        2.17466        5.87711
H         11.09366        1.60486        6.01858
H         11.75820        2.72827        4.16507
H         10.00725        2.72862        3.73897
H         10.25535        0.62278        2.48180
H         10.37639       -0.81942        4.71143
H         13.10797        0.07389        5.87044
H         12.64109       -1.58966        5.49630
H         10.85036       -1.48119        7.29070
H         11.15095        0.45457        8.70199
H         12.99132        1.99285        2.16875
H         11.53653        2.39999        1.23187
H         12.81865       -0.39182        1.23951
H         11.82806       -0.63067       -0.98506
H         11.13498        1.01676       -0.90538
H          9.68584       -0.82823       -0.25030
H         13.39884        1.68467       -0.59652
