124

C         22.91510        6.25497       -2.17904
C         22.70721        5.43901       -3.45710
C         21.23030        5.19939       -3.79161
C         21.01367        4.38448       -5.07048
C         19.54000        4.08621       -5.36492
C         19.28597        3.33269       -6.67580
C         17.81476        2.95321       -6.87284
C         17.46263        2.48750       -8.28918
C         15.99129        2.07165       -8.47878
C         14.94426        3.07335       -7.95471
C         15.12161        4.50188       -8.48383
C         14.06061        5.51725       -8.03241
C         13.72409        5.55747       -6.53216
N         14.88515        5.77135       -5.62807
C         15.13880        4.93175       -4.61233
N         16.36441        4.57428       -4.15320
N         16.30826        3.67434       -3.12784
C         15.03230        3.49157       -2.94465
N         14.25760        4.24929       -3.80683
C         12.80828        4.47712       -3.60249
C         12.50436        5.05051       -2.21101
C         13.12420        6.42483       -1.91827
C         12.63628        7.53595       -2.85765
C         13.02107        8.96313       -2.44301
C         14.52933        9.25577       -2.40371
C         14.84397       10.75088       -2.52976
C         16.33294       11.06688       -2.69469
C         16.61542       12.53877       -3.01948
C         18.04407       12.78944       -3.51017
C         18.35953       14.26441       -3.78176
C         19.75823       14.48457       -4.36206
C         15.88331        6.81608       -5.94777
C         15.25813        8.20139       -6.12622
C         16.35767        9.25173       -6.28406
S         15.71610       10.93386       -6.38747
C         15.42534       11.12139       -8.15753
S         15.75460        9.90891       -9.25987
N         14.93179       12.33960       -8.47231
C         14.69394       13.38861       -7.45952
C         15.93345       14.19481       -7.04007
C         16.60636       15.00227       -8.15437
C         17.78855       15.82759       -7.63879
C         14.60729       12.66570       -9.87699
C         13.25001       12.12990      -10.35314
C         12.03000       12.61928       -9.56463
C         10.71271       12.08699      -10.13637
H         23.98260        6.40456       -1.96852
H         22.47290        5.75211       -1.30581
H         22.45123        7.24991       -2.25853
H         23.21634        4.46543       -3.35992
H         23.19329        5.94974       -4.30540
H         20.71750        6.17445       -3.88685
H         20.74631        4.68406       -2.94244
H         21.55805        3.42823       -4.99298
H         21.45674        4.91726       -5.92890
H         18.99855        5.05742       -5.40661
H         19.12031        3.51151       -4.51839
H         19.90946        2.42422       -6.70339
H         19.62291        3.95636       -7.52092
H         17.19617        3.83770       -6.64064
H         17.52814        2.18231       -6.13591
H         18.10442        1.63696       -8.56794
H         17.71841        3.29266       -8.99811
H         15.81972        1.10484       -7.97880
H         15.81379        1.89261       -9.55112
H         14.97872        3.07262       -6.85123
H         13.93986        2.70342       -8.22031
H         15.11735        4.48551       -9.58506
H         16.12100        4.87465       -8.21042
H         13.09902        5.29239       -8.52285
H         14.34187        6.52018       -8.38737
H         13.27675        4.59809       -6.24732
H         12.97344        6.34356       -6.35479
H         17.26968        4.76842       -4.58357
H         14.61116        2.82839       -2.19678
H         12.29591        3.51724       -3.75557
H         12.46742        5.16173       -4.38300
H         12.80552        4.32658       -1.43820
H         11.40646        5.11769       -2.14452
H         14.22535        6.35633       -1.93824
H         12.86878        6.69066       -0.88037
H         11.53684        7.47777       -2.93157
H         13.01797        7.35913       -3.87902
H         12.57028        9.19704       -1.46438
H         12.55069        9.65528       -3.16046
H         15.02525        8.72514       -3.23718
H         14.98134        8.84921       -1.48389
H         14.43731       11.29246       -1.65871
H         14.30434       11.14433       -3.40904
H         16.73944       10.44040       -3.50877
H         16.88883       10.77052       -1.78866
H         16.40808       13.15986       -2.13151
H         15.90782       12.87705       -3.79669
H         18.20701       12.20824       -4.43610
H         18.76536       12.39365       -2.77362
H         18.25190       14.83788       -2.84624
H         17.60627       14.67534       -4.47376
H         20.53894       14.13443       -3.67071
H         19.94818       15.54716       -4.56597
H         19.88841       13.93654       -5.30769
H         16.45766        6.53463       -6.84477
H         16.58916        6.85845       -5.10558
H         14.63120        8.43872       -5.25587
H         14.62169        8.23624       -7.02099
H         16.94087        9.07994       -7.20355
H         17.03452        9.26729       -5.41636
H         14.23515       12.91794       -6.57545
H         13.93542       14.06134       -7.87989
H         16.67105       13.52120       -6.57747
H         15.60297       14.87673       -6.23802
H         15.86671       15.67173       -8.62614
H         16.95644       14.32032       -8.94619
H         17.47090       16.54004       -6.86305
H         18.25671       16.40400       -8.44766
H         18.56283       15.18374       -7.19744
H         15.40772       12.25386      -10.50612
H         14.63663       13.76048       -9.95749
H         13.28181       11.02971      -10.34705
H         13.14933       12.42716      -11.41048
H         12.00666       13.72246       -9.55707
H         12.11960       12.30501       -8.51125
H         10.56842       12.41309      -11.17670
H          9.85001       12.43992       -9.55530
H         10.69275       10.98706      -10.13033
