84

C          0.63040        0.00244        0.67817
C          2.15263        0.07826        0.53956
C          2.67899       -0.55760       -0.75143
C          4.20131       -0.48030       -0.90031
C          4.72896       -1.12616       -2.18513
C          6.24957       -1.02884       -2.34316
C          6.78267       -1.71870       -3.60261
C          8.29805       -1.58362       -3.78277
C          8.84304       -2.34443       -4.99529
C         10.35134       -2.17311       -5.19968
C         10.90912       -2.98526       -6.37291
C         12.41095       -2.78480       -6.59678
C         12.98180       -3.63766       -7.73395
C         14.47811       -3.41219       -7.97251
C         15.06288       -4.30955       -9.06760
C         16.55310       -4.06130       -9.32344
C         17.13961       -5.01100      -10.37017
C         18.63925       -4.74303      -10.63791
C         19.19475       -5.67607      -11.64839
N         19.83346       -6.78908      -11.38854
N         20.09219       -7.37675      -12.60679
C         19.58307       -6.65410      -13.61409
N         19.65584       -6.95151      -14.92446
N         19.02285       -5.55117      -13.03143
I         18.09059       -4.04519      -14.07078
C         20.78766       -8.66081      -12.69450
C         19.80417       -9.82476      -12.80645
O         18.98064       -9.62567      -13.95112
Si        17.28315       -9.78658      -13.86939
C         16.61842       -8.46277      -12.70214
C         16.72886       -9.47610      -15.62862
C         16.84708      -11.50089      -13.26234
H          0.28515        0.46569        1.61265
H          0.28039       -1.04062        0.67511
H          0.12830        0.51934       -0.15332
H          2.62676       -0.41455        1.40521
H          2.47449        1.13273        0.58121
H          2.20216       -0.06770       -1.61898
H          2.36061       -1.61457       -0.79225
H          4.67803       -0.96283       -0.02871
H          4.51704        0.57759       -0.86718
H          4.24148       -0.65624       -3.05768
H          4.42706       -2.18835       -2.20876
H          6.73789       -1.46779       -1.45517
H          6.54704        0.03469       -2.35424
H          6.27192       -1.30712       -4.49092
H          6.51344       -2.78933       -3.57079
H          8.80749       -1.94266       -2.87108
H          8.56044       -0.51472       -3.87216
H          8.31204       -2.01369       -5.90538
H          8.60922       -3.41812       -4.88459
H         10.88040       -2.46284       -4.27450
H         10.57912       -1.10361       -5.35377
H         10.36384       -2.71833       -7.29565
H         10.70478       -4.05706       -6.20173
H         12.95380       -3.01575       -5.66336
H         12.60941       -1.71853       -6.80409
H         12.42751       -3.42653       -8.66553
H         12.80387       -4.70495       -7.51257
H         15.02864       -3.58361       -7.03123
H         14.65083       -2.35373       -8.23460
H         14.50087       -4.15837      -10.00613
H         14.91136       -5.36752       -8.79072
H         17.11316       -4.17103       -8.37905
H         16.70295       -3.01651       -9.64697
H         16.57018       -4.92251      -11.31068
H         17.02554       -6.05570      -10.03966
H         19.22025       -4.87655       -9.71532
H         18.79128       -3.70305      -10.96935
H         19.58301       -7.94960      -15.13860
H         19.21325       -6.31264      -15.57864
H         21.40972       -8.74135      -11.79456
H         21.44570       -8.62135      -13.57504
H         19.21099       -9.89392      -11.87804
H         20.37851      -10.76038      -12.90758
H         16.72032       -7.45585      -13.13224
H         17.11887       -8.47077      -11.72348
H         15.54705       -8.62762      -12.51813
H         16.98421       -8.46202      -15.96836
H         15.63730       -9.57944      -15.70733
H         17.18166      -10.19750      -16.32212
H         17.22118      -11.69190      -12.24687
H         17.25870      -12.27046      -13.92976
H         15.75542      -11.62767      -13.23704
