79

C         10.59492       -7.09370       -0.52955
C         10.19418       -5.61726       -0.51102
C         10.80618       -4.83911        0.65799
C         10.39226       -3.36536        0.69888
C         11.00034       -2.58863        1.87056
C         10.55293       -1.12522        1.93425
C         11.14781       -0.35216        3.11525
C         10.65525        1.09506        3.20938
C         11.23799        1.86593        4.39846
C         10.67867        3.28756        4.52876
C         11.18583        4.06623        5.75119
C         12.65797        4.48943        5.66668
C         13.12155        5.21720        6.93487
C         14.54480        5.76065        6.82717
O         15.50993        4.69249        6.60539
C         15.82828        4.18935        7.85496
N         16.02660        5.44247        8.69959
C         15.14230        6.53527        8.05913
C         16.06018        7.69798        7.56750
C         17.44093        7.31337        7.05978
O         18.14720        6.48240        7.64465
O         17.81356        8.01178        6.00350
C         19.17899        7.81347        5.47018
C         19.15070        6.88449        4.26809
C         20.53609        6.78704        3.62108
Si        13.93884        7.27183        9.44153
C         12.88829        5.91997       10.22953
C         15.07270        7.95498       10.78910
C         12.91302        8.64644        8.68106
H         10.14182       -7.62454       -1.37805
H         10.27521       -7.60383        0.39130
H         11.68615       -7.20941       -0.60896
H          9.09525       -5.53399       -0.46415
H         10.49333       -5.14046       -1.45966
H         11.90717       -4.90951        0.60485
H         10.51814       -5.32459        1.60732
H          9.29125       -3.29958        0.75257
H         10.67788       -2.87843       -0.25014
H         12.10196       -2.63282        1.80560
H         10.73271       -3.09091        2.81701
H          9.45107       -1.08607        1.99423
H         10.82238       -0.61750        0.99156
H         12.24978       -0.36193        3.04106
H         10.90246       -0.87948        4.05408
H          9.55371        1.09847        3.28213
H         10.89800        1.62801        2.27358
H         12.33734        1.89172        4.30379
H         11.02391        1.31059        5.32925
H          9.57989        3.22806        4.58579
H         10.90133        3.86010        3.61148
H         11.03349        3.45219        6.65671
H         10.56741        4.96948        5.88721
H         12.79772        5.14976        4.79311
H         13.30069        3.61319        5.49570
H         13.02179        4.54571        7.80213
H         12.44919        6.06872        7.13185
H         14.61498        6.39165        5.92949
H         16.76365        3.61917        7.80032
H         15.02726        3.59252        8.32406
H         17.04021        5.76345        8.55733
H         15.81646        5.28258        9.69015
H         16.26300        8.40056        8.39272
H         15.52666        8.27013        6.79984
H         19.81545        7.43157        6.27791
H         19.49476        8.82713        5.19297
H         18.41954        7.26548        3.53919
H         18.80722        5.88801        4.58502
H         20.88772        7.76959        3.27605
H         20.50657        6.12094        2.75021
H         21.28310        6.38775        4.32135
H         13.45473        5.01432       10.49568
H         12.04093        5.61366        9.60538
H         12.48109        6.31594       11.17183
H         15.74299        7.20120       11.22962
H         14.43763        8.31824       11.61098
H         15.69027        8.80421       10.46744
H         12.23840        8.29176        7.89083
H         13.53958        9.44685        8.26393
H         12.28894        9.09957        9.46528
