83

C          0.56955       12.85967       -7.60688
C          2.09591       12.77097       -7.54212
C          2.60797       12.07795       -6.27558
C          4.13481       11.98509       -6.19976
C          4.64468       11.28338       -4.93743
C          6.17211       11.20677       -4.85079
C          6.67843       10.52826       -3.57440
C          8.20578       10.47537       -3.47028
C          8.70661        9.84970       -2.16492
C         10.23379        9.79928       -2.05529
C         10.72978        9.22465       -0.72479
C         12.25631        9.12130       -0.63418
C         12.74168        8.57004        0.71253
C         14.24695        8.27765        0.78121
C         15.17433        9.48911        0.62279
N         15.07431       10.45907        1.74981
C         15.32579       10.13794        2.99086
S         15.02038       11.31324        4.17904
C         14.19078       12.37266        2.92490
C         14.70971       11.89210        1.55674
C         15.91560       12.74590        1.10697
C         16.52528       12.40738       -0.25712
C         17.61102       13.41285       -0.66153
C         18.26215       13.07392       -2.00572
C         19.40277       14.02156       -2.38915
C         20.05367       13.66547       -3.72904
C         21.23218       14.57000       -4.10006
C         21.87121       14.21504       -5.44632
C         23.05796       15.11119       -5.80556
Br        12.24765       12.24131        3.12528
H          0.23274       13.35917       -8.52565
H          0.16727       13.42561       -6.75342
H          0.11181       11.85947       -7.58469
H          2.52758       13.78459       -7.59974
H          2.47262       12.23099       -8.42717
H          2.17687       11.06282       -6.21777
H          2.23057       12.61692       -5.38847
H          4.56386       13.00155       -6.24949
H          4.51264       11.45356       -7.09083
H          4.22487       10.26315       -4.89242
H          4.25676       11.80926       -4.04720
H          6.59047       12.22722       -4.90940
H          6.56260       10.66863       -5.73225
H          6.27316        9.50280       -3.51932
H          6.27326       11.06103       -2.69608
H          8.61130       11.49874       -3.56072
H          8.61273        9.91139       -4.32770
H          8.30216        8.82701       -2.06979
H          8.29791       10.41750       -1.31057
H         10.64219       10.81718       -2.18818
H         10.63989        9.19839       -2.88754
H         10.29486        8.22172       -0.57373
H         10.35286        9.84636        0.10626
H         12.68972       10.12032       -0.82536
H         12.62476        8.47209       -1.44753
H         12.21616        7.62442        0.91853
H         12.44507        9.25401        1.52657
H         14.52583        7.58227       -0.02680
H         14.49282        7.75402        1.71975
H         14.94019       10.05178       -0.28715
H         16.22382        9.16877        0.55651
H         15.69995        9.14844        3.25872
H         14.44663       13.41696        3.12372
H         13.90393       11.93458        0.81001
H         16.69322       12.70911        1.88811
H         15.54579       13.78449        1.08346
H         15.73450       12.39212       -1.02694
H         16.97213       11.40066       -0.24003
H         18.38630       13.44465        0.12346
H         17.17554       14.42567       -0.70432
H         17.49323       13.08479       -2.79762
H         18.64956       12.04033       -1.97039
H         20.16925       14.00722       -1.59470
H         19.02372       15.05742       -2.42820
H         19.29233       13.71081       -4.52728
H         20.39797       12.61658       -3.69764
H         21.99861       14.51434       -3.30700
H         20.89527       15.62126       -4.12261
H         21.10563       14.27944       -6.23779
H         22.19715       13.16127       -5.42502
H         22.75581       16.16729       -5.86468
H         23.49164       14.83451       -6.77598
H         23.85524       15.03708       -5.05120
