50

C          2.05181       -4.25351       -1.97642
C          2.87382       -2.98753       -1.84757
O          3.23993       -2.73537       -0.43525
C          4.35770       -3.27593        0.01451
O          5.13252       -3.96215       -0.65914
C          4.60303       -2.98256        1.48994
C          6.08883       -2.72781        1.79787
N          6.84316       -3.99141        1.36901
C          8.34816       -3.91213        1.38382
C          8.80274       -2.62685        0.68807
N          8.16789       -1.43748        1.24011
C          6.71517       -1.51215        1.05801
C          5.99106       -0.19894        1.38818
C          6.51503        0.97919        0.56112
O          6.28474        0.60721       -0.80978
C          5.81360        2.28457        0.92480
C          8.68422       -1.05244        2.56316
C         10.07793       -0.40109        2.46019
C         11.02264       -0.82969        3.60270
C         11.29284       -2.26318        3.58383
C         11.50469       -3.45494        3.52689
H          1.72814       -4.36157       -3.02077
H          1.15365       -4.21140       -1.34716
H          2.63629       -5.14435       -1.71326
H          2.30269       -2.09160       -2.11473
H          3.80006       -3.02611       -2.43324
H          4.23628       -3.85474        2.05935
H          3.99424       -2.13296        1.81552
H          6.22918       -2.62493        2.88417
H          6.44920       -4.18445        0.40025
H          6.53768       -4.77395        1.96020
H          8.72444       -4.81279        0.88098
H          8.67588       -3.93432        2.43172
H          8.57873       -2.67802       -0.38985
H          9.89424       -2.56099        0.79202
H          6.57059       -1.67234       -0.02521
H          6.05068        0.04251        2.46016
H          4.92267       -0.30839        1.14888
H          7.60256        1.08033        0.73086
H          6.63122        1.31054       -1.38040
H          4.72840        2.20381        0.76968
H          6.18620        3.11232        0.30504
H          5.99883        2.55361        1.97493
H          8.74284       -1.91038        3.26370
H          7.98138       -0.34219        3.01481
H          9.98261        0.69356        2.45674
H         10.53924       -0.67022        1.49989
H         10.59634       -0.55132        4.58111
H         11.97492       -0.28296        3.51980
H         11.75174       -4.49607        3.51806
