46

C          4.16992       -2.99498       -4.42531
C          4.10111       -2.73582       -2.91838
C          5.20948       -3.44549       -2.13197
C          5.16127       -3.16077       -0.62634
C          6.22241       -3.93965        0.16666
C          6.17206       -3.58685        1.64436
O          7.04737       -4.47602        2.44273
C          8.30810       -4.10211        2.60824
O          8.84299       -3.09146        2.18168
C          9.07963       -5.12859        3.44394
P         10.85144       -4.69423        3.41076
C         11.19707       -3.18026        4.36116
C         12.70159       -2.89472        4.35176
O         13.13114       -3.06941        3.01309
C         14.53587       -2.81075        2.81472
C         14.86408       -3.04049        1.35390
C         11.80984       -6.08561        4.00169
C         12.87600       -6.53420        3.32826
H          3.34972       -2.49173       -4.95464
H          4.09992       -4.06917       -4.65169
H          5.11443       -2.62712       -4.85268
H          3.12035       -3.06142       -2.53272
H          4.15574       -1.65102       -2.72724
H          6.19337       -3.14050       -2.52949
H          5.13643       -4.53376       -2.30226
H          4.15954       -3.41338       -0.23848
H          5.29121       -2.07821       -0.45684
H          7.22532       -3.71901       -0.23207
H          6.05271       -5.02186        0.04916
H          5.17958       -3.76784        2.07434
H          6.47668       -2.54990        1.83557
H          8.95175       -6.14606        3.04644
H          8.71464       -5.13862        4.48224
H         11.19739       -4.48488        2.06412
H         10.80923       -3.31312        5.38171
H         10.62290       -2.38580        3.86341
H         13.23813       -3.58373        5.03224
H         12.88044       -1.86333        4.70625
H         15.12374       -3.47920        3.47077
H         14.75282       -1.76949        3.11251
H         14.66440       -4.07950        1.05683
H         15.92834       -2.83972        1.17395
H         14.27774       -2.37349        0.70881
H         11.48908       -6.54004        4.94249
H         13.20798       -6.07658        2.39420
H         13.45762       -7.38019        3.69742
