45

C          0.78878       -0.42979       -0.97625
O          2.07146       -0.09718       -0.43724
C          2.73359        0.92745       -1.15470
C          4.07203        1.16065       -0.44403
C          4.88940        2.33082       -0.99670
C          4.38044        3.68464       -0.48987
C          5.28535        4.84267       -0.91614
C          4.71569        6.21078       -0.52328
C          5.35471        7.47289       -1.11261
C          6.77019        7.86974       -0.56257
Br         8.24131        6.68583       -1.09882
F          7.07396        9.11791       -0.94669
F          6.69889        7.85698        0.79938
Br         5.37739        7.43449       -3.07396
F          4.54058        8.52223       -0.73182
N          4.30421        3.61592        0.98143
C          3.93275        2.50785        1.64534
N          3.69998        2.56839        2.97016
C          3.43277        1.41572        3.83604
C          3.39455        1.87014        5.29961
C          3.11116        0.70375        6.23738
Br         3.03037        1.31892        8.09240
N          3.82276        1.34371        0.99572
H          0.37491       -1.21896       -0.33963
H          0.87743       -0.80445       -2.00925
H          0.11362        0.44315       -0.96326
H          2.12274        1.85350       -1.16848
H          2.92639        0.62941       -2.20291
H          4.65980        0.23446       -0.53663
H          4.85227        2.31011       -2.09423
H          5.94335        2.21464       -0.70428
H          3.36252        3.86974       -0.87906
H          5.38611        4.79957       -2.01048
H          6.29227        4.69257       -0.50077
H          4.73601        6.36938        0.56816
H          3.66106        6.27316       -0.83149
H          4.54936        4.43849        1.52181
H          3.62102        3.48935        3.38924
H          4.22804        0.66723        3.68820
H          2.46819        0.95099        3.56379
H          2.61205        2.63542        5.42730
H          4.35581        2.33452        5.56816
H          3.89873       -0.05723        6.20615
H          2.14198        0.23313        6.03677
H          3.27973        0.60010        1.42760
