46

C          0.52404       -0.17538        0.27425
C          2.04273       -0.26134        0.09544
C          2.73744       -1.50454        0.66545
C          2.64088       -1.58546        2.19873
C          2.75283       -2.93501        2.91261
O          2.60839       -2.65287        4.28872
C          2.92207       -3.75742        5.11837
C          2.86008       -3.29110        6.57067
F          3.75258       -2.30580        6.82030
F          1.63219       -2.83051        6.89965
F          3.15055       -4.33779        7.38251
N          2.11884       -2.80036        0.00069
C          3.26541       -3.75926       -0.19335
C          4.54429       -2.87145       -0.03155
O          4.02358       -1.54206        0.11199
C          5.50214       -3.37870        1.04178
C          5.82150       -4.74851        1.00781
C          6.70776       -5.31794        1.91935
C          7.30056       -4.51436        2.89722
C          7.01112       -3.15307        2.93900
C          6.12904       -2.57349        2.01621
O          5.82399       -1.23662        2.15718
C          6.75754       -0.32769        1.54566
H          0.15756        0.75430       -0.17765
H          0.21761       -0.16389        1.32806
H         -0.01733       -0.99423       -0.22676
H          2.52825        0.60162        0.57466
H          2.31361       -0.20386       -0.97082
H          1.69012       -1.13265        2.51303
H          3.44855       -0.93844        2.56815
H          3.72214       -3.42595        2.72470
H          1.94874       -3.64145        2.59319
H          3.94250       -4.13405        4.92391
H          2.20098       -4.58613        4.99652
H          1.70586       -2.52859       -0.89937
H          1.37422       -3.20290        0.58259
H          3.18176       -4.21194       -1.18587
H          3.20089       -4.53996        0.57084
H          5.09024       -2.84595       -0.98750
H          5.37877       -5.38979        0.24071
H          6.93327       -6.38256        1.86627
H          7.98558       -4.94746        3.62624
H          7.45045       -2.50744        3.70051
H          6.44358        0.67840        1.84345
H          6.72779       -0.41439        0.44773
H          7.78183       -0.51316        1.90184
