88

C          0.58265        0.18703       -0.21585
C          2.11218        0.21455       -0.25141
C          2.73649        0.68282        1.06634
C          4.26745        0.71423        1.04715
C          4.88359        1.18179        2.36845
C          6.41474        1.21787        2.35933
C          7.01566        1.67651        3.69058
C          8.54637        1.72707        3.69923
C          9.12198        2.16307        5.04910
C         10.65093        2.24447        5.08265
C         11.19141        2.63521        6.46077
C         12.71545        2.77328        6.52282
C         13.21489        3.09597        7.93398
C         14.73193        3.28829        8.02638
C         15.18561        3.58362        9.46628
C         16.69148        3.80016        9.51822
N         17.27297        4.20930       10.87757
C         16.90832        3.19217       11.96400
C         17.38926        1.76732       11.73757
C         16.94401        0.86319       12.89832
C         17.30645       -0.60684       12.64659
N         16.63486       -1.10438       11.43903
C         18.77860        4.34499       10.70172
C         19.43807        5.01051       11.90068
O         18.88689        6.29807       12.13519
C         17.49085        6.22942       12.43419
C         16.73561        5.58269       11.26693
C         17.00981        7.66002       12.68010
C         15.60531        7.75341       13.31016
C         15.15563        9.16528       13.46044
C         14.90152        9.81207       14.60327
F         15.02076        9.24545       15.80259
F         14.50241       11.06824       14.68398
F         14.99771        9.84818       12.29323
H          0.16148       -0.15113       -1.17261
H          0.17208        1.18595       -0.00564
H          0.21555       -0.49184        0.56834
H          2.45140        0.87465       -1.06753
H          2.49464       -0.79074       -0.49630
H          2.39557        0.02329        1.88410
H          2.35411        1.68950        1.31175
H          4.60879        1.37491        0.23084
H          4.65003       -0.29222        0.80202
H          4.54091        0.52009        3.18352
H          4.49827        2.18714        2.61406
H          6.76018        1.88649        1.55137
H          6.80280        0.21474        2.10949
H          6.67078        1.00292        4.49495
H          6.61906        2.67561        3.94351
H          8.89502        2.41637        2.91036
H          8.94803        0.73342        3.43385
H          8.77950        1.46205        5.83074
H          8.70220        3.14722        5.32226
H         10.99671        2.97377        4.32946
H         11.07884        1.27162        4.78388
H         10.86526        1.88377        7.20129
H         10.73046        3.58821        6.77471
H         13.04211        3.56362        5.82508
H         13.18708        1.83951        6.17107
H         12.90898        2.28635        8.61907
H         12.71235        4.00945        8.29706
H         15.03956        4.11606        7.36518
H         15.24508        2.38541        7.65517
H         14.89009        2.74021       10.10870
H         14.64715        4.47398        9.82624
H         16.99023        4.60261        8.82879
H         17.22882        2.88890        9.22407
H         15.81359        3.22708       12.03790
H         17.30992        3.58816       12.90393
H         18.48767        1.72724       11.66925
H         16.98613        1.33863       10.80864
H         15.85183        0.94473       13.03514
H         17.40400        1.19306       13.84351
H         17.07728       -1.18640       13.55887
H         18.39301       -0.68880       12.48806
H         15.66743       -1.35698       11.64642
H         17.08422       -1.95489       11.10108
H         18.92368        4.96949        9.81023
H         19.18711        3.34724       10.50524
H         20.50312        5.15513       11.67529
H         19.37205        4.38216       12.80895
H         17.34744        5.63790       13.36101
H         16.84132        6.21861       10.37648
H         15.67109        5.46246       11.49768
H         17.04113        8.22270       11.73484
H         17.74247        8.12910       13.35206
H         15.59404        7.27428       14.29953
H         14.85891        7.22795       12.68805
