51

O          1.51689        0.69258       -6.00516
C          1.28040       -0.26691       -4.97393
C          1.93261        0.22285       -3.70083
O          3.35819        0.14168       -3.83653
C          4.04355        0.66432       -2.72863
C          5.54213        0.50997       -2.97163
N          6.02293        1.21225       -4.17602
N          6.30566        0.47616       -5.28764
C          6.67280        1.35556       -6.18539
N          6.64687        2.63303       -5.66841
C          6.21595        2.52706       -4.37927
C          5.99044        3.64133       -3.41514
C          6.98267        3.73130       -2.22058
C          8.44336        3.84638       -2.69289
C          9.47017        3.77664       -1.55884
C          6.54664        4.89985       -1.32856
C          6.97536        3.89149       -6.37499
C          7.97670        3.71852       -7.50727
O          7.34903        2.98763       -8.54835
C          8.13390        2.87669       -9.72760
C          7.42588        1.89508      -10.65781
F          6.18851        2.31889      -10.99327
F          8.14798        1.74489      -11.78896
F          7.29774        0.67425      -10.07244
H          1.08911        0.37900       -6.81630
H          1.69501       -1.25581       -5.23883
H          0.20033       -0.38715       -4.77346
H          1.59889       -0.40184       -2.85138
H          1.63203        1.26983       -3.50680
H          3.81160        0.11363       -1.79411
H          3.76954        1.72468       -2.55066
H          5.78780       -0.54309       -3.15058
H          6.11056        0.86781       -2.10439
H          6.94792        1.13255       -7.21113
H          4.96570        3.54740       -3.02434
H          6.01095        4.59058       -3.96968
H          6.89446        2.80289       -1.62973
H          8.56723        4.79478       -3.24596
H          8.65886        3.03445       -3.40940
H          9.37898        4.62511       -0.86866
H         10.49240        3.78814       -1.95759
H          9.35302        2.85257       -0.97387
H          6.64238        5.85829       -1.86162
H          7.16161        4.95796       -0.42281
H          5.50045        4.79446       -1.00934
H          7.39877        4.58386       -5.63783
H          6.04258        4.31790       -6.77165
H          8.89448        3.20745       -7.15663
H          8.26379        4.73064       -7.84732
H          9.14095        2.47663       -9.51758
H          8.22791        3.84616      -10.24623
