45

F          0.95420       -0.03423       -0.82868
C          2.28332       -0.14786       -0.42699
C          2.86518       -1.42962       -1.01669
C          4.32239       -1.62914       -0.58321
N          4.90132       -2.87469       -1.10695
C          5.76083       -2.96055       -2.10746
S          6.30052       -4.53927       -2.46315
C          5.03144       -5.28167       -1.34996
C          4.65290       -4.14575       -0.38813
Si         3.58671       -6.04037       -2.40797
C          2.76261       -4.64373       -3.36274
C          4.35135       -7.31200       -3.55431
C          2.41096       -6.83316       -1.17586
C          6.25761       -1.78848       -2.90466
C          7.28691       -2.15998       -3.95229
C          8.64691       -2.21835       -3.61377
C          9.59616       -2.57465       -4.57352
C          9.19412       -2.87169       -5.87850
C          7.84100       -2.80795       -6.22386
C          6.89056       -2.45221       -5.26531
H          2.30338       -0.16060        0.67535
H          2.82041        0.74670       -0.78255
H          2.80213       -1.38622       -2.11424
H          2.24675       -2.27733       -0.68501
H          4.40222       -1.67920        0.51422
H          4.94686       -0.78968       -0.91462
H          5.52990       -6.09317       -0.80186
H          5.26409       -4.13439        0.53183
H          3.59615       -4.19099       -0.08897
H          3.47915       -4.09805       -3.99294
H          2.25806       -3.92777       -2.70078
H          1.99620       -5.06057       -4.03144
H          5.05968       -6.86288       -4.26419
H          3.56271       -7.80097       -4.14389
H          4.87718       -8.09660       -2.99215
H          1.96936       -6.10846       -0.47756
H          2.91366       -7.61405       -0.58842
H          1.57977       -7.30960       -1.71525
H          6.67406       -1.04350       -2.20569
H          5.38215       -1.30948       -3.37561
H          8.96773       -1.97687       -2.59791
H         10.65151       -2.61066       -4.30251
H          9.93525       -3.14298       -6.63055
H          7.52548       -3.02699       -7.24409
H          5.83546       -2.39411       -5.54213
