100

C         20.79329        0.62717        7.78014
C         19.76527        0.64516        6.64607
C         19.95386       -0.49215        5.63551
C         18.92162       -0.48864        4.50331
C         19.10562       -1.63261        3.50061
C         18.06759       -1.63982        2.37350
C         18.25259       -2.79311        1.38173
C         17.21155       -2.81865        0.25780
C         17.40735       -3.97937       -0.72332
C         16.36594       -4.02443       -1.84612
C         16.58461       -5.18132       -2.82708
C         15.54598       -5.24001       -3.95159
C         15.79870       -6.37989       -4.94470
C         14.74807       -6.45209       -6.06218
C         15.01785       -7.50824       -7.12475
C         14.09767       -7.58241       -8.34544
C         14.21212       -6.38295       -9.28460
O         13.40734       -6.66792      -10.40513
C         13.42090       -5.63433      -11.40319
C         12.51796       -6.06534      -12.54638
C         12.47550       -5.05013      -13.69389
C         11.56129       -5.48980      -14.84286
C         11.51213       -4.49404      -16.00662
C         10.59704       -4.94558      -17.14771
C         14.53476       -8.89916       -9.00985
C         14.82977       -9.85418       -7.84805
N         14.99898       -8.97064       -6.60290
C         13.98602       -9.30365       -5.52461
C         14.29264      -10.65210       -4.87467
C         15.67385      -10.73371       -4.20970
C         15.92664      -12.07372       -3.50754
C         17.32939      -12.18486       -2.90205
C         17.58888      -13.52486       -2.20372
C         19.00335      -13.64038       -1.63101
H         20.63139        1.45394        8.48536
H         21.81877        0.71876        7.39178
H         20.74121       -0.31153        8.35194
H         19.81606        1.61204        6.11712
H         18.74818        0.58746        7.06974
H         19.91009       -1.46016        6.16587
H         20.96938       -0.43203        5.20514
H         18.96864        0.47668        3.96894
H         17.90688       -0.54339        4.93583
H         19.06538       -2.59681        4.03777
H         20.11810       -1.57495        3.06325
H         18.11037       -0.67944        1.83013
H         17.05486       -1.69322        2.81065
H         18.21908       -3.75171        1.92929
H         19.26321       -2.73499        0.94022
H         17.24473       -1.86332       -0.29483
H         16.20017       -2.87758        0.69718
H         17.38414       -4.93327       -0.16711
H         18.41682       -3.91426       -1.16633
H         16.38183       -3.06960       -2.39994
H         15.35587       -4.10203       -1.40692
H         16.57562       -6.13656       -2.27213
H         17.59361       -5.09801       -3.26771
H         15.53684       -4.28118       -4.49757
H         14.53727       -5.35001       -3.51651
H         15.84351       -7.33099       -4.38304
H         16.79693       -6.25440       -5.39910
H         14.73722       -5.48806       -6.59559
H         13.73129       -6.56174       -5.65188
H         16.05534       -7.38705       -7.48432
H         13.04651       -7.65472       -8.01568
H         15.27380       -6.23301       -9.58116
H         13.87655       -5.45433       -8.78068
H         14.45932       -5.47631      -11.75478
H         13.07062       -4.68403      -10.95540
H         11.50239       -6.22915      -12.15106
H         12.86953       -7.04003      -12.92254
H         13.49618       -4.88769      -14.08196
H         12.13600       -4.07169      -13.31179
H         10.53950       -5.64799      -14.45508
H         11.89581       -6.47305      -15.21849
H         12.53350       -4.33637      -16.39249
H         11.17707       -3.51261      -15.63052
H         10.92813       -5.90669      -17.56859
H         10.58285       -4.21329      -17.96600
H          9.56109       -5.07683      -16.80159
H         15.43841       -8.72521       -9.61239
H         13.76945       -9.30383       -9.67997
H         15.74120      -10.44808       -7.97777
H         13.99962      -10.53864       -7.64484
H         15.91629       -9.16443       -6.18248
H         12.99456       -9.27990       -5.99433
H         14.03657       -8.50356       -4.77791
H         14.17274      -11.47263       -5.60036
H         13.51019      -10.81359       -4.11701
H         15.78705       -9.90964       -3.48413
H         16.48011      -10.59512       -4.95842
H         15.77068      -12.89606       -4.22693
H         15.16877      -12.21319       -2.71796
H         17.48650      -11.36176       -2.18296
H         18.08243      -12.03933       -3.69751
H         17.41121      -14.34619       -2.91829
H         16.85005      -13.66152       -1.39646
H         19.76406      -13.55067       -2.42075
H         19.15539      -14.60765       -1.13433
H         19.20160      -12.85262       -0.88929
