46

C          0.86204        0.07859       -0.08832
C          2.38992        0.02072       -0.03312
C          3.00409       -0.51279       -1.33178
C          4.53245       -0.58859       -1.27905
C          5.10681       -1.09933       -2.62724
C          6.58194       -1.22179       -2.63129
N          7.46385       -0.26497       -2.92542
N          8.76132       -0.66331       -2.84789
C          8.70887       -1.92020       -2.47078
N          7.36109       -2.30633       -2.32620
C          6.84567       -3.54489       -1.91510
N          5.79388       -3.73966       -1.18695
N          5.65130       -5.11968       -1.09001
C          6.64507       -5.64584       -1.77022
O          7.45419       -4.67648       -2.35111
S          7.08615       -7.28869       -2.02964
C          5.71843       -8.11679       -1.12194
C          6.05514       -9.60007       -1.01360
C          9.91098       -2.76034       -2.21820
C         10.30542       -2.79791       -0.72582
O          9.13444       -3.26213       -0.03654
C         11.51414       -3.69547       -0.49720
H          0.44585        0.46463        0.85114
H          0.43158       -0.91900       -0.25799
H          0.51561        0.73397       -0.90048
H          2.70783       -0.61794        0.80718
H          2.79268        1.02600        0.17413
H          2.69290        0.12914       -2.17425
H          2.60022       -1.51767       -1.54189
H          4.84920       -1.27167       -0.47803
H          4.95454        0.40475       -1.05596
H          4.82189       -0.41258       -3.43956
H          4.67539       -2.08507       -2.85248
H          7.24939        0.68784       -3.21068
H          4.79424       -7.93963       -1.68552
H          5.63359       -7.63400       -0.14113
H          6.19120      -10.06363       -2.00026
H          5.22384      -10.11630       -0.51548
H          6.96324       -9.76710       -0.41995
H         10.73315       -2.32143       -2.79774
H          9.74393       -3.78511       -2.57529
H         10.53948       -1.76536       -0.40637
H          9.34377       -3.35908        0.90610
H         11.30779       -4.72203       -0.83027
H         11.77022       -3.72258        0.57139
H         12.39416       -3.31749       -1.03580
