46

C          0.79993       -0.03100       -0.15181
C          2.26147        0.25704        0.20032
C          2.99819        1.03589       -0.89440
C          4.46779        1.32042       -0.56416
C          5.19011        2.06004       -1.69795
C          6.65212        2.30471       -1.37996
O          7.25911        2.97520       -2.54742
C          8.52806        2.69135       -2.83211
O          9.28809        1.97890       -2.20983
C          8.90348        3.39394       -4.14838
N         10.35448        3.28381       -4.41101
C         11.11471        4.35525       -4.07134
C         12.48798        4.31858       -4.24237
C         13.07973        3.18319       -4.76824
C         12.29010        2.06943       -5.12269
C         10.88629        2.12813       -4.90816
C          9.99700        0.96535       -5.25881
C          9.52278        1.00417       -6.70761
C          8.18788        0.51040       -7.07804
O          8.45344        1.92778       -6.97289
N         12.86761        0.97372       -5.69470
H          0.29827       -0.59291        0.64720
H          0.72091       -0.62485       -1.07458
H          0.23488        0.89960       -0.30829
H          2.79055       -0.69250        0.38838
H          2.31042        0.82273        1.14585
H          2.47462        1.98962       -1.08098
H          2.94251        0.47087       -1.84168
H          4.98636        0.36876       -0.35544
H          4.52900        1.91185        0.36526
H          4.69233        3.02174       -1.89909
H          5.12281        1.46857       -2.62583
H          7.20994        1.37810       -1.19122
H          6.79047        2.97938       -0.52287
H          8.64740        4.45718       -4.09197
H          8.34456        2.96646       -4.99209
H         10.58576        5.21528       -3.67061
H         13.08310        5.18598       -3.96346
H         14.16019        3.14301       -4.91496
H          9.13302        0.91324       -4.58784
H         10.54493        0.02792       -5.07508
H         10.30988        1.00536       -7.47053
H          7.53059        0.10262       -6.30414
H          8.00872        0.15218       -8.09464
H         13.87678        0.89521       -5.69331
H         12.36291        0.10359       -5.79382
