40

C          1.90529        0.84384       -1.40906
O          2.06709       -0.52551       -0.98105
C          2.64283       -1.35913       -1.88697
S          4.56409       -1.17778       -1.90442
C          5.13295       -1.97054       -0.42139
C          4.65698       -3.21870        0.00605
C          5.17155       -3.76663        1.18000
C          6.14836       -3.08035        1.91077
C          6.61855       -1.83978        1.47283
C          6.11114       -1.27308        0.30268
C          4.95128       -2.45443       -3.32902
O          4.28736       -2.10619       -4.45753
C          4.91552       -1.10013       -5.32230
C          3.81540       -0.31562       -6.01147
C          4.35553        0.68598       -7.04080
C          3.24132        1.51079       -7.69810
C          3.76057        2.51434       -8.72912
H          1.32771        1.33766       -0.62245
H          1.35524        0.88629       -2.36153
H          2.88240        1.34015       -1.51434
H          2.39289       -1.16264       -2.94367
H          2.44215       -2.40143       -1.61005
H          3.89376       -3.76252       -0.55144
H          4.80673       -4.73432        1.52475
H          6.54300       -3.51701        2.82832
H          7.37833       -1.30629        2.04372
H          6.46482       -0.30147       -0.04355
H          4.58419       -3.41756       -2.95156
H          6.05152       -2.42673       -3.37550
H          5.55051       -1.64128       -6.04114
H          5.55747       -0.44602       -4.70847
H          3.22415        0.21980       -5.24841
H          3.13108       -1.02559       -6.50243
H          4.91879        0.14406       -7.81951
H          5.07811        1.36732       -6.55855
H          2.67797        2.04487       -6.91394
H          2.52022        0.82696       -8.17602
H          4.45645        3.23413       -8.27389
H          2.93675        3.08691       -9.17461
H          4.29354        2.00925       -9.54781
