96

C          1.23518       15.66836        9.34255
C          2.75449       15.50962        9.24100
C          3.18845       14.20037        8.57146
C          4.70823       14.04772        8.45206
C          5.15171       12.75382        7.76054
C          6.67337       12.62575        7.63490
C          7.14029       11.34810        6.92857
C          8.66570       11.24624        6.82628
C          9.17091        9.97551        6.13397
C         10.70078        9.89654        6.09212
C         11.25182        8.63815        5.41261
C         12.78277        8.56808        5.46807
C         13.36988        7.32348        4.79215
C         14.90277        7.24538        4.86872
N         15.35026        7.12468        6.27346
C         15.77475        5.95255        6.68858
S         15.89853        4.77469        5.45884
C         15.52964        6.03250        4.14483
C         16.82139        6.34317        3.39503
O         17.30972        5.12656        2.88992
C         18.60260        5.25022        2.26369
C         19.09489        3.87418        1.85157
C         20.46689        3.94567        1.16956
C         21.02117        2.58214        0.74167
C         22.38707        2.69172        0.05619
C         22.97621        1.35350       -0.40110
C         24.33446        1.50765       -1.09373
C         24.94820        0.19105       -1.57976
C         26.29734        0.37941       -2.28145
C         26.92566       -0.92228       -2.79038
C         28.26700       -0.70705       -3.49631
C         16.09810        5.66847        8.12305
C         17.56799        5.26402        8.38338
C         18.55719        6.39559        8.17326
F         18.47212        6.86336        6.84285
H          0.96050       16.61580        9.82635
H          0.78605       14.85379        9.93025
H          0.76442       15.65503        8.34821
H          3.19937       15.56585       10.24914
H          3.17667       16.35986        8.67874
H          2.73546       14.13951        7.56597
H          2.77669       13.34663        9.13841
H          5.15969       14.09577        9.45894
H          5.11693       14.91194        7.89900
H          4.69621       12.70265        6.75593
H          4.75479       11.88583        8.31589
H          7.12547       12.66868        8.64175
H          7.06710       13.50349        7.09249
H          6.69966       11.30543        5.91713
H          6.74880       10.46670        7.46627
H          9.09878       11.29991        7.84102
H          9.05304       12.12955        6.28861
H          8.76962        9.92881        5.10681
H          8.77240        9.08817        6.65627
H         11.08932        9.94778        7.12509
H         11.09755       10.78912        5.57761
H         10.92000        8.60582        4.36097
H         10.82788        7.74025        5.89435
H         13.08465        8.60297        6.53099
H         13.20881        9.47199        4.99894
H         13.09962        7.31953        3.72388
H         12.94105        6.40527        5.22785
H         15.34016        8.17251        4.46271
H         15.24691        7.90556        6.91893
H         14.80846        5.55771        3.46686
H         17.55541        6.82710        4.07158
H         16.58620        7.06303        2.58225
H         19.30385        5.72198        2.97843
H         18.51667        5.91775        1.38563
H         18.35710        3.41635        1.17352
H         19.14818        3.23037        2.74458
H         21.18936        4.43045        1.84927
H         20.40016        4.60023        0.28329
H         20.30452        2.09139        0.06053
H         21.10143        1.92342        1.62401
H         23.09807        3.18448        0.74282
H         22.29945        3.36349       -0.81592
H         22.26863        0.85628       -1.08761
H         23.07932        0.67928        0.46730
H         25.03939        2.00327       -0.40290
H         24.22547        2.19372       -1.95229
H         24.24440       -0.30877       -2.26850
H         25.07166       -0.49588       -0.72396
H         27.00122        0.87577       -1.58979
H         26.17080        1.07574       -3.12952
H         26.22205       -1.41991       -3.47918
H         27.06057       -1.61698       -1.94400
H         28.15770       -0.04381       -4.36745
H         28.69345       -1.65467       -3.85290
H         29.00364       -0.24486       -2.82208
H         15.44099        4.84538        8.44596
H         15.82786        6.54647        8.73000
H         17.84121        4.40531        7.75273
H         17.64859        4.92780        9.42780
H         19.58968        6.05767        8.33926
H         18.34970        7.25604        8.82911
