40

O          2.59188        0.77608       -0.17733
C          3.49129       -0.21727        0.32206
C          2.79804       -1.57327        0.17732
C          2.32734       -1.82750       -1.28988
N          0.86586       -1.91667       -1.40168
C          0.03308       -0.80656       -1.40196
C         -1.25851       -1.24431       -1.54004
N         -1.16494       -2.62418       -1.61910
C          0.12153       -3.03861       -1.52558
C          0.54248       -4.43755       -1.58628
C          1.50605       -4.97207       -0.71462
C          1.81557       -6.33017       -0.83126
N          1.24340       -7.15531       -1.71845
C          0.32033       -6.63723       -2.54088
C         -0.06419       -5.29603       -2.52064
C         -2.56490       -0.52656       -1.60450
C         -2.44455        0.99286       -1.36550
C         -3.77991        1.64926       -1.32503
C         -4.25383        2.55785       -2.18562
F         -3.55876        3.00185       -3.23025
F         -5.44361        3.12100       -2.10309
F         -4.58308        1.26157       -0.29743
O          3.61199       -2.63051        0.66190
H          2.97254        1.65311       -0.01721
H          3.73142       -0.05559        1.38462
H          4.43915       -0.22117       -0.25365
H          1.90573       -1.57569        0.82338
H          2.75131       -2.77123       -1.64927
H          2.64605       -1.01680       -1.95658
H          0.44940        0.18748       -1.28697
H         -1.95384       -3.26315       -1.67546
H          1.99722       -4.37057        0.05007
H          2.55959       -6.77722       -0.16727
H         -0.12987       -7.32665       -3.25968
H         -0.79472       -4.92813       -3.24319
H         -3.24890       -0.95858       -0.85547
H         -3.03058       -0.70577       -2.58810
H         -1.84378        1.46290       -2.15627
H         -1.93258        1.17754       -0.40552
H          4.52137       -2.52152        0.33531
