66

C          2.33479        2.84180       -0.68415
C          3.31886        1.68688       -0.48549
C          3.87674        1.60969        0.94058
C          4.83007        0.42896        1.15146
C          5.43139        0.40265        2.54696
O          6.22410       -0.78217        2.68074
C          6.85503       -0.89131        3.93622
C          7.53153       -2.25984        3.96980
C          8.36136       -2.50573        5.21474
O          9.21541       -3.64716        4.97002
C          9.65740       -4.10704        6.19519
N          8.39847       -4.07029        7.05293
C          7.59920       -2.83219        6.57473
C          7.79073       -1.68865        7.59726
C          9.21148       -1.38909        8.09811
C          9.23690       -0.16079        9.01713
C         10.64769        0.19999        9.48724
C         10.68457        1.44546       10.37713
N         12.06799        1.79124       10.71084
C          6.12511       -3.22244        6.41360
C          5.11894       -2.30150        6.74526
C          3.76540       -2.57200        6.54474
C          3.38155       -3.79746        6.00713
C          4.34860       -4.74828        5.67928
C          5.70222       -4.46519        5.87464
O          6.69905       -5.37727        5.57407
C          6.35069       -6.61548        4.92599
H          1.96468        2.88062       -1.71738
H          2.80509        3.81172       -0.46401
H          1.46170        2.74007       -0.02258
H          4.15673        1.78643       -1.19594
H          2.82420        0.73262       -0.73320
H          3.03781        1.53629        1.65498
H          4.39447        2.55580        1.17808
H          5.64783        0.46463        0.41400
H          4.29598       -0.52003        0.98195
H          4.63630        0.40227        3.32025
H          6.06205        1.29724        2.72006
H          6.10873       -0.78986        4.75003
H          7.60545       -0.08344        4.07691
H          8.21539       -2.32326        3.11072
H          6.77665       -3.04741        3.84120
H          9.00506       -1.62879        5.40705
H         10.41089       -3.46511        6.68141
H         10.02093       -5.13769        6.10101
H          8.59043       -4.03033        8.05960
H          7.82910       -4.90716        6.79946
H          7.13889       -1.87795        8.46443
H          7.40370       -0.77556        7.11962
H          9.90062       -1.20868        7.25750
H          9.62919       -2.24566        8.66054
H          8.58089       -0.33867        9.88633
H          8.80025        0.69587        8.47536
H         11.30544        0.37692        8.62089
H         11.08464       -0.65247       10.03787
H         10.02923        1.28253       11.25799
H         10.25491        2.29510        9.82279
H         12.46189        1.12084       11.37252
H         12.11472        2.70398       11.16294
H          5.39010       -1.33447        7.16294
H          3.01977       -1.82382        6.81031
H          2.32855       -4.02664        5.84410
H          4.04161       -5.70854        5.27008
H          7.30135       -7.12482        4.74044
H          5.84675       -6.41925        3.96986
H          5.71528       -7.23779        5.57228
