43

C          2.60940       -0.21151       -0.75317
C          3.56188        0.15880       -0.10210
C          4.73046        0.53339        0.68696
C          5.42007       -0.70927        1.29021
C          5.94858       -1.65092        0.19152
N          6.15105       -3.03668        0.63221
C          5.15290       -3.95405        0.52271
N          5.42072       -5.24615        0.76656
C          4.41252       -6.30922        0.69306
C          3.00897       -5.73865        0.85205
C          2.81554       -4.54203       -0.09028
N          3.90670       -3.57607        0.17613
C          1.48741       -3.86575        0.11066
C          0.54663       -3.79395       -0.83319
C          7.40064       -3.33105        1.35719
C          8.48849       -4.02359        0.50827
C          9.88794       -3.88478        1.10990
O          9.89936       -4.71441        2.27853
O          8.18632       -5.42372        0.35283
H          1.75189       -0.47917       -1.33543
H          4.42822        1.21572        1.49596
H          5.43634        1.09831        0.05543
H          4.69392       -1.24603        1.91882
H          6.23754       -0.38784        1.95126
H          6.91124       -1.28653       -0.19579
H          5.26404       -1.65269       -0.66907
H          6.41733       -5.51600        0.69897
H          4.62719       -7.03798        1.48684
H          4.50841       -6.83315       -0.27210
H          2.83965       -5.41178        1.88932
H          2.26709       -6.51288        0.62082
H          2.88906       -4.88393       -1.13749
H          3.68121       -2.58622        0.08972
H          1.30661       -3.45418        1.10921
H          0.70487       -4.20321       -1.83364
H         -0.42186       -3.33505       -0.63576
H          7.18099       -3.94296        2.24457
H          7.78177       -2.36618        1.71839
H          8.49393       -3.58136       -0.50057
H         10.09995       -2.83025        1.35786
H         10.63021       -4.22937        0.37199
H         10.81476       -4.85809        2.56311
H          8.68733       -5.86663        1.06921
