37

C          1.47642       -1.47185       -0.10772
C          2.38538       -0.49681       -0.17742
C          3.20615       -0.22332       -1.40764
N          4.65809       -0.24965       -1.11949
N          5.35305        0.92544       -1.05629
C          6.58774        0.58778       -0.73341
N          6.65129       -0.78380       -0.58667
C          5.42940       -1.30452       -0.83833
C          5.06444       -2.74517       -0.83403
C          5.10570       -3.43855       -2.21759
C          6.46486       -3.24872       -2.93161
F          7.52121       -3.46840       -2.10439
F          6.57416       -4.08702       -3.97816
F          6.57935       -1.97309       -3.40152
O          4.84889       -4.79251       -1.94669
C          7.74088        1.50742       -0.58518
C          8.83013        1.29561       -1.66016
C          9.92564        2.36867       -1.55842
N          9.35202        3.70590       -1.72496
H          0.86690       -1.61590        0.78380
H          1.28700       -2.14576       -0.94683
H          2.54756        0.18198        0.66455
H          3.02929        0.78585       -1.80308
H          2.99734       -0.94767       -2.20651
H          7.48552       -1.33300       -0.39059
H          4.04893       -2.86535       -0.43415
H          5.74223       -3.29256       -0.16427
H          4.35239       -2.99253       -2.89476
H          4.77883       -5.28690       -2.78094
H          8.17505        1.38148        0.42094
H          7.37049        2.53889       -0.65224
H          8.36483        1.33652       -2.65837
H          9.29340        0.29976       -1.56644
H         10.72039        2.11967       -2.28553
H         10.38822        2.31948       -0.56034
H          9.21296        3.92753       -2.71130
H          9.97165        4.42174       -1.34863
