66

C          5.75312        0.07503        1.44155
C          7.03516       -0.40831        0.75904
C          6.76601       -1.05594       -0.61048
C          8.06501       -1.49435       -1.25742
O          7.82362       -2.23861       -2.52981
C          7.69235       -1.51363       -3.61507
O          7.64964       -0.33297       -3.80388
N          7.58972       -2.48465       -4.79560
C          6.43086       -2.16871       -5.69530
C          5.83110       -3.52616       -6.08362
O          6.16215       -4.54135       -5.48765
O          4.96814       -3.41140       -7.07282
C          4.26004       -4.64138       -7.50724
C          2.95706       -4.81717       -6.74726
C          2.18138       -6.04219       -7.25417
C          0.84623       -6.24666       -6.52679
C          0.07951       -7.47476       -7.02298
C          8.92254       -2.55136       -5.54123
C          9.95290       -3.35366       -4.75397
C         11.37786       -3.03799       -5.23402
S         12.63703       -3.44792       -3.99993
C         12.45902       -2.08747       -2.83944
S         11.37307       -0.83028       -3.07667
N         13.29885       -2.17671       -1.78571
C         14.23905       -3.27849       -1.53973
C         13.96868       -3.88242       -0.15710
O         14.03445       -2.89741        0.86567
C         13.09277       -1.85373        0.63072
C         13.32971       -1.17063       -0.71569
H          5.97485        0.52545        2.41757
H          5.05098       -0.75415        1.60966
H          5.23807        0.83342        0.83480
H          7.55020       -1.13422        1.40977
H          7.72862        0.43887        0.63174
H          6.24896       -0.33535       -1.26338
H          6.10359       -1.92759       -0.48741
H          8.60479       -2.23465       -0.65523
H          8.73524       -0.65963       -1.49863
H          7.37302       -3.45059       -4.45295
H          6.76307       -1.58668       -6.56116
H          5.68995       -1.57179       -5.14756
H          4.94279       -5.48919       -7.36817
H          4.09463       -4.46718       -8.57697
H          2.34452       -3.90917       -6.86415
H          3.17109       -4.93290       -5.67259
H          2.80279       -6.94649       -7.13718
H          1.99356       -5.93754       -8.33670
H          0.22411       -5.34480       -6.65185
H          1.03427       -6.33961       -5.44402
H         -0.15426       -7.39516       -8.09474
H         -0.87007       -7.59469       -6.48509
H          0.66202       -8.39639       -6.87777
H          9.23869       -1.50857       -5.68254
H          8.70037       -2.99757       -6.51978
H          9.74462       -4.43123       -4.82841
H          9.89136       -3.06844       -3.69615
H         11.48875       -1.96904       -5.46467
H         11.66299       -3.62739       -6.11715
H         15.26600       -2.88092       -1.58735
H         14.13672       -4.05278       -2.30904
H         14.73375       -4.63310        0.08013
H         12.97559       -4.37436       -0.15721
H         13.21744       -1.13167        1.44825
H         12.06066       -2.25686        0.66741
H         14.31851       -0.68391       -0.72544
H         12.56057       -0.41921       -0.92748
