81

C          4.35649        3.54151        1.61384
C          4.79980        3.31840        0.16630
C          3.74090        2.60107       -0.67884
C          4.21693        2.37633       -2.12004
N          3.22361        1.70492       -2.97501
C          2.35055        2.37070       -3.75349
S          1.26014        1.61445       -4.79207
S          2.48693        4.15596       -3.60215
C          1.22394        4.71964       -4.76690
C         -0.19891        4.63466       -4.19956
C         -1.23665        4.57493       -5.33427
N         -2.53753        4.01538       -4.93572
C         -3.44451        4.73685       -4.27368
N         -3.19729        6.02340       -3.92060
N         -4.63154        4.21047       -3.91493
C         -5.04260        2.83767       -4.21007
C         -4.26091        2.31259       -5.41136
C         -2.75263        2.52409       -5.17523
N         -2.19543        1.64785       -4.19943
C         -4.64535        0.85530       -5.69686
C         -3.89660        0.27671       -6.90420
C         -4.57127       -0.87993       -7.64220
C         -4.36568       -2.35426       -7.11938
C         -4.87683       -2.81440       -5.69779
C         -6.40000       -2.74175       -5.28572
C         -7.52016       -3.49390       -6.11005
C         -7.42725       -5.05800       -6.26414
F         -7.25741       -5.64733       -5.06777
F         -8.57753       -5.49284       -6.80540
F         -6.41413       -5.40572       -7.07430
F         -8.67979       -3.22992       -5.45031
F         -7.59728       -2.95211       -7.34929
F         -6.45187       -3.19911       -4.00830
F         -6.76702       -1.42675       -5.26977
F         -4.48013       -4.10206       -5.54656
F         -4.21220       -2.06313       -4.76597
F         -4.89895       -3.19527       -8.03794
F         -3.01423       -2.56166       -7.08176
F         -5.91527       -0.65302       -7.78712
F         -4.03907       -0.91677       -8.91025
C          3.24977        0.23165       -2.94808
C          4.22084       -0.37104       -3.96943
C          4.26847       -1.89996       -3.87356
C          5.23868       -2.53162       -4.87411
H          5.13405        4.05621        2.19367
H          4.14240        2.58896        2.11960
H          3.44534        4.15564        1.66274
H          5.73577        2.73499        0.15317
H          5.04063        4.28824       -0.30048
H          2.80992        3.19021       -0.69222
H          3.49195        1.63032       -0.21937
H          5.12091        1.74880       -2.12876
H          4.50344        3.32926       -2.58946
H          1.32280        4.09522       -5.66721
H          1.51888        5.74967       -5.01443
H         -0.38574        5.47040       -3.50795
H         -0.28772        3.71003       -3.61656
H         -0.85400        3.90349       -6.11510
H         -1.38788        5.55175       -5.82399
H         -2.34639        6.47447       -4.22873
H         -3.96900        6.63571       -3.68655
H         -5.21252        4.75887       -3.29069
H         -6.11977        2.84082       -4.42419
H         -4.88635        2.19584       -3.32540
H         -4.53218        2.92810       -6.28664
H         -2.21576        2.34790       -6.11702
H         -2.53828        1.77782       -3.25023
H         -1.16965        1.61643       -4.20715
H         -5.72631        0.82920       -5.89099
H         -4.45631        0.24875       -4.80400
H         -2.87961       -0.03894       -6.63400
H         -3.80099        1.04632       -7.68686
H          2.22841       -0.12369       -3.13616
H          3.53427       -0.06217       -1.92609
H          5.23133        0.04150       -3.81030
H          3.90874       -0.06482       -4.97993
H          3.25523       -2.30402       -4.03572
H          4.55244       -2.19339       -2.84854
H          4.95715       -2.29165       -5.90974
H          5.25161       -3.62543       -4.77859
H          6.26645       -2.17280       -4.71808
