63

C          2.27465        5.88138       -1.55415
C          3.35342        5.10127       -0.79264
C          3.58914        3.62110       -1.17644
C          2.41175        2.67586       -0.81950
C          1.18971        2.60325       -1.76505
C         -0.04134        1.97038       -1.10753
C          0.09112        0.44955       -1.09128
N          0.22208       -0.05956       -2.47658
C          0.95861        0.64477       -3.36333
N          1.17213        0.25040       -4.64242
C          1.44050       -1.10746       -5.14779
C          1.27907       -1.13911       -6.67693
O          1.99357       -2.30041       -7.07298
C          2.21717       -2.41940       -8.49646
C          3.29212       -3.44596       -8.72927
C          2.96178       -4.77308       -9.03346
C          3.96479       -5.72630       -9.22920
C          5.30851       -5.35929       -9.12123
C          5.64859       -4.03643       -8.82013
C          4.64445       -3.08703       -8.62608
C         -0.18595       -1.13671       -7.11522
N          1.49555        1.82328       -2.98296
N         -0.61764       -1.09164       -2.95560
C         -0.44010       -2.32700       -2.18573
C         -2.01776       -0.66299       -3.05693
C          4.11709        3.47666       -2.61280
H          2.31264        6.94284       -1.27612
H          1.25747        5.53548       -1.32054
H          2.41144        5.83435       -2.64432
H          3.13346        5.14537        0.28611
H          4.31551        5.62279       -0.92005
H          4.40857        3.28670       -0.51803
H          2.03395        2.98107        0.16973
H          2.80488        1.65326       -0.69689
H          0.92576        3.61607       -2.10100
H         -0.95097        2.24501       -1.66201
H         -0.15094        2.35444       -0.08520
H         -0.80277       -0.01637       -0.66128
H          0.95569        0.12279       -0.49414
H          1.58418        0.98172       -5.21824
H          0.74187       -1.80452       -4.67704
H          2.47201       -1.40644       -4.90390
H          1.78604       -0.24164       -7.10381
H          2.53099       -1.43440       -8.89183
H          1.28407       -2.71446       -9.00615
H          1.91164       -5.05999       -9.12313
H          3.69760       -6.75570       -9.47127
H          6.09221       -6.10146       -9.27950
H          6.69702       -3.74511       -8.74261
H          4.91087       -2.05204       -8.39899
H         -0.68125       -2.05712       -6.77492
H         -0.27864       -1.07503       -8.20656
H         -0.71779       -0.27356       -6.69012
H          2.26662        2.16857       -3.54686
H          0.61910       -2.61310       -2.18921
H         -1.01709       -3.11792       -2.68081
H         -0.79206       -2.25370       -1.13975
H         -2.08361        0.22624       -3.69582
H         -2.49121       -0.45042       -2.07940
H         -2.58101       -1.47332       -3.53645
H          3.40748        3.85527       -3.36777
H          4.37408        2.43289       -2.85164
H          5.03460        4.06650       -2.74246
