59

C          8.76038       -5.26892        0.27056
C          8.27182       -3.81822        0.28777
C          8.90153       -2.97949        1.40585
C          8.41869       -1.52590        1.43068
C          9.10488       -0.66933        2.49968
C          8.62568        0.78568        2.51851
C          9.36871        1.66151        3.53308
C          8.91663        3.12763        3.50486
C          9.55926        4.02758        4.57206
C         11.07671        4.13819        4.42227
N         11.60944        5.06067        5.44603
C         12.80332        5.67401        5.46679
N         13.88321        5.16838        4.83824
N         13.98618        3.79364        4.44856
N         14.73482        3.86550        3.19872
N         14.78604        3.03459        5.32787
N         12.93500        6.84333        6.12120
C         14.17048        7.39293        6.69333
C         13.84957        8.77405        7.25643
O         12.69398        8.63288        8.06503
C         12.27828        9.86750        8.68583
C         11.02479        9.60533        9.49402
H          8.29732       -5.83991       -0.54573
H          8.52056       -5.78340        1.21297
H          9.85100       -5.32157        0.13426
H          7.17393       -3.79909        0.39319
H          8.48894       -3.34413       -0.68460
H         10.00064       -2.99681        1.29539
H          8.69019       -3.45288        2.38099
H          7.32622       -1.50471        1.58840
H          8.58821       -1.06954        0.43928
H         10.19686       -0.69048        2.33309
H          8.94314       -1.12180        3.49388
H          7.54347        0.81535        2.73303
H          8.74484        1.22022        1.51025
H         10.45162        1.59027        3.32915
H          9.22345        1.25287        4.54913
H          7.82491        3.17071        3.64227
H          9.10794        3.55478        2.50531
H          9.32561        3.63004        5.57545
H          9.11352        5.03473        4.51071
H         11.33728        4.52792        3.42461
H         11.56085        3.16063        4.53062
H         10.92300        5.42773        6.09983
H         14.70769        5.74821        4.65867
H         15.09304        2.91457        3.07060
H         14.03449        4.01182        2.46393
H         14.22628        2.78079        6.14039
H         15.63585        3.53523        5.61965
H         12.09676        7.26114        6.52847
H         14.95062        7.50385        5.92641
H         14.54647        6.73006        7.48945
H         13.66619        9.49426        6.43496
H         14.71592        9.13526        7.83950
H         12.09920       10.62475        7.90036
H         13.09775       10.23567        9.32897
H         10.20375        9.25577        8.85349
H         10.69861       10.53166        9.98528
H         11.20869        8.85359       10.27293
