51

C          1.22555       -1.26686        1.62075
C          2.53936       -1.20648        0.83787
C          2.27096       -1.14316       -0.67100
N          3.51160       -1.05312       -1.45742
N          4.14343       -2.10428       -1.91503
N          5.26354       -1.70209       -2.49085
C          5.33094       -0.36558       -2.37848
N          4.23279        0.06699       -1.71095
C          3.78673        1.44039       -1.40325
C          2.72040        1.97022       -2.37271
C          3.18667        2.05141       -3.83053
S          1.82027        2.31100       -4.98609
C          1.24479        0.62093       -5.23369
S          1.95135       -0.70310       -4.48270
N          0.21423        0.53991       -6.09708
C         -0.47124        1.68577       -6.71157
C         -1.94662        1.67175       -6.29287
O         -2.57337        0.44567       -6.64171
C         -1.91589       -0.66170       -6.03036
C         -0.44212       -0.73268       -6.43346
C          6.42352        0.49936       -2.90198
C          7.57189       -0.30262       -3.54003
C          8.60396        0.64612       -4.13467
Br        10.07642       -0.34851       -4.95049
H          1.42799       -1.33831        2.69632
H          0.62774       -2.14401        1.33625
H          0.61190       -0.36991        1.45547
H          3.15678       -2.09243        1.04725
H          3.12634       -0.32903        1.15359
H          1.63439       -0.29664       -0.95699
H          1.79038       -2.05823       -1.03899
H          4.70008        2.04938       -1.42966
H          3.42275        1.44629       -0.36759
H          2.42551        2.96387       -2.00477
H          1.82713        1.33354       -2.32437
H          3.66643        1.11483       -4.15145
H          3.86750        2.89835       -4.00046
H         -0.38587        1.59320       -7.80595
H         -0.00187        2.62957       -6.41152
H         -2.49419        2.46525       -6.81788
H         -2.02002        1.85046       -5.20175
H         -2.44380       -1.56313       -6.36749
H         -1.99610       -0.59428       -4.92771
H         -0.35296       -0.88395       -7.52097
H          0.07958       -1.54314       -5.91306
H          6.80286        1.13128       -2.08031
H          5.99105        1.19223       -3.64362
H          7.17389       -0.96432       -4.32137
H          8.04169       -0.95055       -2.78715
H          9.06447        1.29399       -3.37932
H          8.18400        1.26646       -4.93567
