55

C          1.43897        2.13078        3.12816
C          2.82121        2.01257        2.49501
S          3.63714        0.50157        3.15244
C          5.25959        0.80230        2.64756
N          5.77322        1.80368        1.97201
N          7.13662        1.55239        1.88962
C          7.34873        0.43110        2.50602
O          6.20543       -0.13030        3.01498
C          8.65099       -0.25572        2.67545
C          8.63115       -1.75414        2.27493
N          9.49917       -2.36956        3.28861
C          9.63945       -1.53444        4.33837
N         10.26322       -1.90549        5.46560
N          9.11791       -0.32358        4.09545
C          9.26427        0.84614        4.96859
C          8.20403        0.96458        6.06440
O          7.04468        1.53753        5.48279
C          5.97132        1.74217        6.38529
C          5.26208        3.07354        6.10369
C          5.92095        4.40202        6.62083
C          7.29660        4.90894        6.05243
C          7.36749        5.20672        4.52164
F          8.47336        5.96771        4.29619
F          7.51185        4.03876        3.83492
F          7.55062        6.07210        6.70676
F          8.28038        4.01786        6.39005
F          5.02531        5.40391        6.38833
F          6.08317        4.26618        7.96931
F          5.01188        3.22430        4.76815
F          4.05143        3.00368        6.74468
C          9.93885       -3.74831        3.27900
O          9.39140       -4.40635        4.40899
C          9.74825       -5.79920        4.45833
H          0.93194        3.01277        2.71488
H          1.50291        2.25649        4.21703
H          0.80914        1.25655        2.91344
H          3.46680        2.86251        2.74316
H          2.77219        1.91400        1.40356
H          9.38288        0.31627        2.08262
H          9.03294       -1.90521        1.26658
H          7.61419       -2.17167        2.33192
H         10.27548       -2.90566        5.66451
H         10.31392       -1.26844        6.25032
H          9.20820        1.74211        4.33448
H         10.27066        0.83719        5.41550
H          8.59862        1.61327        6.86655
H          7.98023       -0.02851        6.50197
H          6.30273        1.74913        7.43620
H          5.20406        0.95852        6.26184
H          6.47570        5.74067        4.15941
H         11.04595       -3.79230        3.30559
H          9.59337       -4.20084        2.33350
H          9.29511       -6.19971        5.37047
H         10.84202       -5.93189        4.50010
H          9.34689       -6.33653        3.58420
