53

C         -0.10873       -1.52971       -1.01303
O          1.21530       -1.03569       -0.84535
C          2.14502       -1.67953       -1.69454
C          3.50772       -1.06309       -1.41026
O          4.44721       -1.66907       -2.29941
C          5.76427       -1.20960       -2.13169
C          6.61586       -1.87358       -3.21320
C          8.14272       -1.69423       -3.12014
C          8.74976       -2.24752       -1.82212
N          8.89109       -1.03897       -0.92788
C          9.19641        0.21529       -1.81295
C          8.64695       -0.22383       -3.19945
C         10.71566        0.47117       -1.79910
C         11.63592       -0.69740       -2.17331
C         13.11158       -0.26030       -2.29246
C         13.98028       -1.38403       -2.61047
C         14.66179       -2.34639       -2.87855
C          8.42246        1.37726       -1.15092
C          8.71762        2.78658       -1.68736
O          8.55280        2.73361       -3.11107
C          7.80289        3.82271       -1.04075
H         -0.74778       -0.96853       -0.32200
H         -0.17103       -2.60633       -0.77205
H         -0.46856       -1.37578       -2.04622
H          1.88534       -1.53395       -2.76152
H          2.17658       -2.77036       -1.50334
H          3.79554       -1.24663       -0.35738
H          3.46921        0.03042       -1.57111
H          6.11973       -1.47785       -1.10365
H          5.80389       -0.10288       -2.20574
H          6.27684       -1.50386       -4.19190
H          6.38683       -2.95049       -3.19772
H          8.57353       -2.26481       -3.95384
H          9.75291       -2.65900       -1.97260
H          8.12984       -2.99515       -1.31224
H          9.61621       -1.16618       -0.21114
H          7.99984       -0.87579       -0.43761
H          9.44170       -0.12737       -3.94765
H          7.84915        0.45543       -3.51516
H         11.00607        0.86371       -0.80846
H         10.87800        1.29578       -2.51012
H         11.33483       -1.14778       -3.13132
H         11.59455       -1.50189       -1.41929
H         13.44337        0.20960       -1.35100
H         13.20538        0.51363       -3.07279
H         15.29236       -3.17756       -3.11705
H          8.65142        1.39698       -0.07195
H          7.34079        1.18720       -1.25555
H          9.76776        3.04346       -1.44845
H          8.60947        3.63664       -3.46155
H          6.74860        3.60729       -1.26393
H          8.03595        4.82830       -1.41834
H          7.93478        3.84747        0.05013
