69

C          9.13042       -3.17341        5.56812
C          8.85906       -2.53576        4.20346
C          9.52811       -1.16762        4.02777
C          9.25783       -0.52507        2.66381
C          9.94627        0.83043        2.47103
C          9.66574        1.46304        1.10398
C         10.39541        2.79181        0.87717
C         10.08053        3.42740       -0.48136
C         10.83357        4.73910       -0.73423
C         10.47287        5.37645       -2.08214
C         11.05599        6.78448       -2.31731
P         12.86862        6.89169       -2.29771
C         13.63861        5.72049       -3.45178
C         15.17239        5.59261       -3.27232
C         15.72173        4.50615       -4.13005
C         16.61121        4.64724       -5.12105
F         17.11986        5.82462       -5.47286
F         17.08712        3.65784       -5.84704
F         15.25568        3.26104       -3.84979
C         13.44319        8.58798       -2.60416
C         12.87698        9.65927       -1.65035
C         13.24136        9.47174       -0.17236
C         12.82205       10.66632        0.69250
C         13.19479       10.51393        2.17076
C         12.72231       11.68661        3.03836
C         13.11652       11.54792        4.51047
H          8.64002       -4.15217        5.65940
H          8.75953       -2.53922        6.38705
H         10.20775       -3.32609        5.73121
H          7.77102       -2.42873        4.05569
H          9.20580       -3.21274        3.40425
H         10.61790       -1.27506        4.17227
H          9.18427       -0.48832        4.82785
H          8.16879       -0.40380        2.52723
H          9.58583       -1.21416        1.86562
H         11.03604        0.70692        2.60072
H          9.62391        1.52306        3.26828
H          8.57877        1.62039        0.99170
H          9.95104        0.75263        0.30843
H         11.48428        2.62814        0.96383
H         10.12960        3.49941        1.68195
H          8.99582        3.61671       -0.55395
H         10.31758        2.71064       -1.28659
H         11.91937        4.53696       -0.67817
H         10.61415        5.45221        0.07991
H          9.37920        5.48093       -2.15337
H         10.75759        4.70817       -2.91045
H         10.71053        7.48965       -1.54375
H         10.74008        7.19660       -3.28949
H         13.31440        6.51542       -1.01121
H         13.38044        6.04056       -4.47321
H         13.15521        4.74614       -3.28226
H         15.40579        5.36295       -2.21785
H         15.68310        6.53119       -3.52394
H         13.18309        8.80581       -3.65299
H         14.54318        8.55493       -2.54598
H         11.78408        9.72899       -1.76994
H         13.27236       10.62457       -2.00235
H         14.33044        9.31462       -0.07931
H         12.76600        8.55911        0.23244
H         11.73224       10.81663        0.60156
H         13.28840       11.58173        0.28967
H         14.29004       10.40834        2.26308
H         12.76582        9.57519        2.56461
H         11.62607       11.77727        2.95573
H         13.13406       12.62610        2.63302
H         12.70224       10.62965        4.95251
H         12.74742       12.39536        5.10308
H         14.20912       11.51048        4.63137
