105

O          2.67800       -0.82143        0.97731
C          3.19587        0.49311        0.76538
C          4.12712        0.82763        1.93010
N          5.04045        1.91794        1.56794
C          6.09836        2.19648        2.55277
C          7.28361        1.21105        2.48945
C          8.02125        1.18037        1.13568
C          7.18029        0.57310       -0.00578
C          7.73619        0.71073       -1.35693
N          7.59379       -0.34187       -2.10076
C          6.90754       -1.46474       -1.37449
C          6.89133       -0.94723        0.08341
C          5.54261       -1.76429       -2.00302
C          4.82642       -2.91167       -1.28321
O          3.93518       -3.49630       -2.21436
C          3.12428       -4.51723       -1.63066
C          2.47672       -5.30454       -2.76195
O          1.55201       -6.18054       -2.13352
C          1.00585       -7.20552       -2.87430
C          0.16780       -8.07773       -2.16659
C         -0.41282       -9.15896       -2.81442
C         -0.18108       -9.42681       -4.17789
C          0.63498       -8.52326       -4.86577
C          1.22777       -7.42000       -4.23604
C         -0.83665      -10.64403       -4.85035
C         -0.59525      -11.95433       -4.03299
C          0.79652      -12.64887       -3.89388
C          1.16419      -13.46297       -5.15261
C          1.94529      -11.67599       -3.56559
C          0.65749      -13.64502       -2.72130
C         -2.36983      -10.40324       -4.84735
C         -0.40697      -10.79611       -6.32038
C          7.97351       -0.42764       -3.52168
C          8.78730       -1.68440       -3.83814
C          9.39478       -1.57992       -5.24095
S         10.48610       -2.96695       -5.63289
C         12.00036       -2.49615       -4.77666
S         12.15267       -1.06256       -3.93010
N         12.98306       -3.41419       -4.91199
C         12.86348       -4.68998       -5.62895
C         13.16128       -5.84528       -4.66678
O         14.43964       -5.70415       -4.06211
C         14.53589       -4.47232       -3.34789
C         14.29120       -3.26948       -4.25947
O          8.19998        1.49501        3.54278
H          1.77888       -0.87056        0.62132
H          2.38438        1.23615        0.69088
H          3.77147        0.53708       -0.17985
H          4.71915       -0.07293        2.15281
H          3.53790        1.04243        2.84190
H          4.50743        2.77221        1.40078
H          5.72528        2.19783        3.59478
H          6.48235        3.20945        2.34497
H          6.92467        0.19502        2.72260
H          8.94799        0.60208        1.27120
H          8.31641        2.20950        0.86612
H          6.22236        1.15946        0.01890
H          8.19850        1.60985       -1.77169
H          7.54741       -2.35283       -1.47693
H          7.68091       -1.43919        0.66859
H          5.93537       -1.16323        0.57060
H          5.67493       -2.07759       -3.04967
H          4.91231       -0.86151       -2.00844
H          4.28093       -2.54175       -0.39470
H          5.56157       -3.66808       -0.93388
H          2.34781       -4.07586       -0.97942
H          3.74044       -5.19621       -1.01225
H          3.24593       -5.86712       -3.31910
H          1.96825       -4.62048       -3.46594
H         -0.01031       -7.89395       -1.10663
H         -1.05420       -9.81990       -2.23003
H          0.83849       -8.66895       -5.92602
H          1.85385       -6.74777       -4.82212
H         -1.28597      -12.71139       -4.44271
H         -0.96181      -11.76106       -3.01250
H          1.38333      -12.82709       -6.01886
H          0.35017      -14.14702       -5.43482
H          2.05935      -14.07322       -4.96142
H          2.13582      -10.96543       -4.38061
H          2.87320      -12.24226       -3.39383
H          1.73731      -11.08919       -2.66003
H         -0.15546      -14.36473       -2.90072
H          0.44011      -13.12067       -1.77875
H          1.58590      -14.21833       -2.58212
H         -2.77060      -10.34430       -3.82605
H         -2.89036      -11.22148       -5.36639
H         -2.61277       -9.46120       -5.35838
H          0.68166      -10.85959       -6.44401
H         -0.76502       -9.95097       -6.92615
H         -0.84393      -11.71000       -6.74504
H          8.55952        0.47399       -3.74729
H          7.04869       -0.38777       -4.11890
H          8.16339       -2.58726       -3.76966
H          9.61188       -1.76882       -3.11494
H          9.98783       -0.65893       -5.34390
H          8.62643       -1.60870       -6.02828
H         13.58648       -4.69184       -6.46105
H         11.85811       -4.80492       -6.05076
H         13.17456       -6.79780       -5.21329
H         12.36917       -5.89013       -3.89296
H         15.55202       -4.43321       -2.93426
H         13.80956       -4.45890       -2.51181
H         15.06476       -3.22305       -5.04349
H         14.29447       -2.32977       -3.69536
H          8.48787        2.42109        3.47510
