66

C          1.47799       -2.46864        1.73824
C          2.57104       -1.44286        1.41828
C          3.87028       -1.78834        2.13113
O          4.93876       -0.83383        1.80362
C          5.04190        0.24995        2.57483
O          4.34802        0.53897        3.53028
C          6.21307        1.12127        2.09756
C          6.92197        1.77696        3.24063
N          7.05366        3.11146        3.18518
N          7.65079        3.92716        4.05063
C          8.18611        3.34020        5.11817
C          8.12025        1.93844        5.29370
C          7.48168        1.12669        4.36868
C          7.41473       -0.36309        4.58028
C          8.27925       -1.19233        3.61222
O          9.67405       -0.81761        3.74254
C         10.14636        0.11336        2.87237
O          9.46971        0.66575        2.02410
C         11.60017        0.41062        3.14546
S         11.72925        1.71334        4.43333
C          8.18210       -2.67576        3.95489
O          8.95886       -3.47131        3.04729
C          8.40863       -3.67568        1.81303
O          7.29252       -3.30993        1.50204
C          9.39523       -4.36214        0.90135
S         10.56878       -3.12995        0.21718
C          8.78921        4.24099        6.15270
C          7.73908        4.59164        7.22230
O          7.17247        3.37473        7.67133
C          6.22437        3.53993        8.72959
C          5.52625        2.22260        8.98640
O          6.45730        1.28187        9.49376
C          5.84130        0.05482        9.85975
H          0.54767       -2.21784        1.21388
H          1.25484       -2.49579        2.81447
H          1.77040       -3.48223        1.42889
H          2.24389       -0.43887        1.72853
H          2.75570       -1.40660        0.33400
H          4.28324       -2.74929        1.79955
H          3.74078       -1.79347        3.22255
H          5.80027        1.88208        1.41605
H          6.92978        0.52885        1.51254
H          6.65833        3.60584        2.38225
H          8.56749        1.50266        6.18626
H          6.37252       -0.70571        4.49958
H          7.73901       -0.57227        5.60971
H          7.97819       -1.03888        2.56921
H         12.09600        0.73987        2.22728
H         12.11275       -0.46652        3.55577
H         11.40126        2.74655        3.62138
H          7.12780       -2.98656        3.92499
H          8.60714       -2.87731        4.94628
H          8.86521       -4.87625        0.09356
H         10.01599       -5.07464        1.45713
H          9.67553       -2.52064       -0.59849
H          9.14664        5.16466        5.68011
H          9.63926        3.73092        6.62678
H          6.96173        5.24957        6.78626
H          8.22742        5.14143        8.04782
H          5.46731        4.29658        8.44985
H          6.74070        3.88315        9.64461
H          5.06459        1.85120        8.04836
H          4.70791        2.39903        9.71297
H          6.62943       -0.59289       10.26113
H          5.36990       -0.44082        8.98987
H          5.06902        0.20447       10.63622
