56

C          3.52503       -3.31058       -4.04796
C          4.00590       -3.82828       -2.69098
C          5.31999       -3.18882       -2.23084
C          5.79959       -3.69105       -0.86592
C          7.12401       -3.06731       -0.41549
C          7.57898       -3.53697        0.96995
C          8.91540       -2.91930        1.39580
C          9.36450       -3.27657        2.80228
O          9.57789       -4.73605        2.95762
C         10.77048       -5.21385        2.63404
O         11.72720       -4.55170        2.24783
C         10.82076       -6.74169        2.76097
N         11.98043       -7.22417        3.51617
C         11.80577       -8.31524        4.51253
C         11.11053       -7.83404        5.79026
C         10.72575       -8.97037        6.72421
F         11.87562       -9.68434        7.10986
C         13.25936       -8.80736        4.71896
N         13.99565       -8.19763        3.59931
C         13.23320       -7.28405        2.98713
N         13.60549       -6.51248        1.96312
C         15.44996       -8.33411        3.46008
C         15.86863       -9.50345        2.57028
H          2.58225       -3.78698       -4.34872
H          4.26563       -3.51059       -4.83650
H          3.35515       -2.22407       -4.02197
H          4.13328       -4.92322       -2.73673
H          3.22880       -3.64525       -1.92964
H          5.19723       -2.09222       -2.19262
H          6.10160       -3.37942       -2.98750
H          5.90584       -4.78990       -0.89786
H          5.02306       -3.48353       -0.10895
H          7.02744       -1.96773       -0.41084
H          7.90825       -3.29883       -1.15745
H          7.65634       -4.63728        0.97567
H          6.80585       -3.28140        1.71505
H          8.83858       -1.81869        1.37385
H          9.71126       -3.17770        0.67908
H          8.58724       -3.06406        3.54665
H         10.29884       -2.77275        3.07790
H         10.82530       -7.15451        1.73581
H          9.91541       -7.09872        3.26273
H         11.20207       -9.11352        4.04328
H         10.18113       -7.30137        5.53079
H         11.75892       -7.11413        6.31329
H         10.04592       -9.68859        6.23832
H         10.25029       -8.58521        7.63706
H         13.33822       -9.90093        4.70155
H         13.67701       -8.44708        5.67159
H         14.55973       -6.55119        1.62607
H         13.05177       -5.64531        1.82668
H         15.85800       -8.45105        4.47515
H         15.85295       -7.38270        3.07949
H         15.49450      -10.45776        2.96315
H         16.96405       -9.56347        2.53211
H         15.49702       -9.38402        1.54402
