65

C          2.50425        5.57244       -2.57393
C          2.55339        5.75580       -1.05516
C          3.30856        4.63569       -0.33346
C          4.79891        4.65288       -0.57110
O          5.46385        5.59825       -0.95273
O          5.36139        3.43832       -0.26520
C          6.79220        3.38322       -0.35723
C          7.23768        3.20997       -1.82683
C          8.71619        3.26123       -1.97603
N          9.45713        4.44286       -2.02177
C          8.93374        5.83496       -1.95636
C          9.61172        6.65382       -0.85228
C          9.28052        8.15892       -0.91295
C          7.77898        8.43005       -0.70175
C          7.35830        9.91290       -0.82350
C          7.74220       10.56130       -2.12668
C          6.95021       10.80287       -3.18927
C          5.49040       10.44081       -3.26391
C          7.48924       11.49780       -4.41265
C         10.15859        8.90264        0.10256
C         10.75966        4.14156       -2.16806
N         10.87969        2.81261       -2.20666
C          9.63231        2.22806       -2.08498
C          9.42099        0.76001       -2.09749
O          8.32645        0.24619       -1.99607
O         10.60319        0.12785       -2.24128
C         10.56257       -1.34894       -2.26585
C         10.65342       -1.92005       -0.86560
H          1.93486        6.38218       -3.04855
H          2.01946        4.62314       -2.84521
H          3.51224        5.57830       -3.01241
H          1.53099        5.78755       -0.65180
H          3.01948        6.72030       -0.80623
H          2.92310        3.64055       -0.60287
H          3.17636        4.71648        0.75952
H          7.08858        2.51044        0.23687
H          7.22272        4.29500        0.08158
H          6.77407        3.99852       -2.43447
H          6.89195        2.23578       -2.19284
H          7.85166        5.76131       -1.79532
H          9.10193        6.29067       -2.94375
H         10.70600        6.54491       -0.93581
H          9.32862        6.24500        0.13240
H          9.55089        8.51412       -1.92427
H          7.48648        8.05571        0.29533
H          7.18748        7.85591       -1.43167
H          7.80384       10.48554        0.00583
H          6.27149        9.96378       -0.66870
H          8.78544       10.88792       -2.20623
H          5.12103        9.92440       -2.37036
H          5.29910        9.79193       -4.13385
H          4.87626       11.34295       -3.41581
H          8.55429       11.74246       -4.30976
H          6.94012       12.43403       -4.60367
H          7.35994       10.87685       -5.31407
H          9.90929        8.60595        1.13302
H         10.02470        9.98879        0.02949
H         11.22561        8.69278       -0.06015
H         11.57159        4.85492       -2.24558
H         11.74442        2.28574       -2.31053
H         11.43102       -1.61547       -2.87941
H          9.63981       -1.64908       -2.77753
H         11.55589       -1.56955       -0.34769
H         10.70678       -3.01537       -0.93263
H          9.76882       -1.66236       -0.26961
