74

C          9.99466       -8.04734        2.17686
C          9.85040       -6.57464        1.78812
C         10.35340       -5.60938        2.86685
C         10.20393       -4.13563        2.47723
C         10.67205       -3.15661        3.55904
C         10.45545       -1.68997        3.16974
C         10.87259       -0.69843        4.26530
C         10.58903        0.73543        3.85566
O         10.93556        1.63136        4.94162
C         10.65434        2.99074        4.66426
C         10.85932        3.75143        5.96991
C         10.79726        5.27007        5.88714
C         11.11111        5.91503        7.24575
C         12.47190        5.45499        7.78590
C         12.59129        3.93243        7.85642
N         12.22426        3.33430        6.51288
Br        11.46548        3.07439        9.20477
C         12.83467        6.09556        9.12732
O         14.09994        5.60443        9.51733
C         14.54720        6.15869       10.77051
C         15.92739        5.61879       11.10233
C         16.45623        6.18461       12.42603
C         17.86157        5.68940       12.78345
C         18.37485        6.25240       14.11221
C         19.79233        5.79651       14.47049
C         20.28802        6.34957       15.81056
C         21.71234        5.91061       16.15606
H          9.61270       -8.70969        1.38819
H          9.43789       -8.27256        3.09861
H         11.04761       -8.31247        2.35303
H          8.79142       -6.35257        1.57294
H         10.39632       -6.38478        0.84863
H         11.41344       -5.82723        3.08646
H          9.80410       -5.79676        3.80644
H          9.14464       -3.93163        2.24096
H         10.76388       -3.94584        1.54479
H         11.74102       -3.32742        3.77479
H         10.13265       -3.36657        4.49904
H          9.38911       -1.53742        2.92942
H         11.01226       -1.47217        2.24221
H         11.94627       -0.81262        4.48709
H         10.32515       -0.91962        5.19568
H          9.51702        0.87087        3.62325
H         11.17098        1.01658        2.95861
H          9.60878        3.13672        4.33562
H         11.31311        3.38476        3.86170
H         10.14927        3.37083        6.71845
H          9.79124        5.55434        5.54816
H         11.50094        5.63279        5.11767
H         10.32004        5.66696        7.97058
H         11.11680        7.00859        7.14391
H         13.26050        5.76235        7.06921
H         13.61261        3.61985        8.09670
H         12.22200        2.29881        6.53636
H         12.94752        3.61334        5.83072
H         12.06037        5.85493        9.88332
H         12.84948        7.19609        9.00449
H         13.82075        5.89683       11.56336
H         14.57044        7.26204       10.68731
H         16.61851        5.87256       10.28244
H         15.88292        4.51879       11.15547
H         15.76060        5.92225       13.24173
H         16.46514        7.28714       12.37543
H         18.56123        5.96241       11.97443
H         17.86190        4.58636       12.82804
H         17.68286        5.96106       14.92178
H         18.34816        7.35560       14.07381
H         20.48839        6.10317       13.66987
H         19.82791        4.69303       14.49677
H         19.59828        6.03051       16.61009
H         20.23653        7.45124       15.78806
H         21.78842        4.81458       16.21414
H         22.03561        6.31791       17.12364
H         22.42958        6.25180       15.39482
