79

C          1.67098       -3.66784       -0.97316
C          3.11017       -3.15631       -0.87216
C          3.77545       -3.47018        0.47298
C          5.20714       -2.93772        0.58750
C          5.87212       -3.23528        1.93543
C          7.28006       -2.64496        2.06287
C          7.93240       -2.90329        3.42399
C          9.29991       -2.22756        3.57805
C          9.89520       -2.41133        4.97731
C         11.20758       -1.67036        5.18485
O         11.55377       -1.79054        6.57528
C         12.77260       -1.13118        6.96977
N         12.95274       -1.20406        8.39396
C         13.20774       -2.54460        8.91234
C         11.93565       -3.40476        9.01988
C         12.12205       -4.82203        9.55541
C         10.84859       -5.69316        9.51492
C         10.21040       -5.75761        8.11934
C          8.89275       -6.54410        8.09193
S          7.91437       -5.93244        6.69130
O          7.53427       -4.56344        6.97467
O          8.57263       -6.27658        5.45261
Cl         6.21477       -7.10002        6.86026
N         10.94698       -2.63290        9.89407
C         10.66748       -1.22938        9.39681
C         12.00393       -0.47792        9.25314
C         11.78217        0.97795        8.82132
C         11.11657        1.82730        9.90173
O         11.96425        1.79873       11.05922
C         11.34896        2.09467       12.29424
C         10.99123        0.81250       13.05090
F         12.06645       -0.00083       13.20906
F         10.48654        1.08814       14.26708
F         10.04964        0.06250       12.37677
H          1.22532       -3.42918       -1.94853
H          1.03223       -3.21907       -0.19771
H          1.62516       -4.75985       -0.84576
H          3.12608       -2.06552       -1.03677
H          3.71506       -3.59167       -1.68553
H          3.77535       -4.56284        0.63397
H          3.16306       -3.04629        1.28881
H          5.20153       -1.84594        0.42061
H          5.82238       -3.36230       -0.22519
H          5.91474       -4.32728        2.09297
H          5.23894       -2.83803        2.74869
H          7.23087       -1.55579        1.88607
H          7.92355       -3.05070        1.26277
H          8.03717       -3.98882        3.58922
H          7.26182       -2.54230        4.22365
H          9.19659       -1.14918        3.36488
H          9.99689       -2.62259        2.81934
H         10.04764       -3.48404        5.18138
H          9.17204       -2.05166        5.72891
H         11.10489       -0.59978        4.92293
H         12.01408       -2.09290        4.55686
H         12.74495       -0.07670        6.64834
H         13.63889       -1.61738        6.48559
H         13.69633       -2.45976        9.90058
H         13.91408       -3.06104        8.24736
H         11.46926       -3.41087        8.02692
H         12.53220       -4.80077       10.57928
H         12.90019       -5.29004        8.93215
H         10.10195       -5.32707       10.24446
H         11.10776       -6.70298        9.86523
H         10.91555       -6.19475        7.39748
H         10.00154       -4.73770        7.76029
H          8.26796       -6.36319        8.97747
H          9.02456       -7.62405        7.95196
H         11.31935       -2.57732       10.85535
H         10.06530       -3.15844        9.95471
H         10.00364       -0.76641       10.13566
H         10.16299       -1.33262        8.42901
H         12.47449       -0.43783       10.25305
H         11.17010        1.03772        7.90787
H         12.76611        1.41066        8.58853
H         10.10711        1.45564       10.14753
H         11.00788        2.86494        9.54290
H         10.43535        2.70269       12.19264
H         12.06794        2.64779       12.91618
