51

C          6.06566        0.70197        1.34026
C          4.73128        0.80694        0.63277
O          4.85808        0.40084       -0.78739
C          4.65491       -0.87125       -1.07761
O          4.38587       -1.77413       -0.29855
C          4.88365       -1.17542       -2.56864
N          4.34129       -2.57833       -2.76144
C          2.85808       -2.66222       -3.10251
C          2.44354       -1.67620       -4.18674
C          2.84237       -0.19574       -3.91739
C          4.39326       -0.25846       -3.70403
C          5.26231        1.02762       -3.81641
C          5.24564        1.54860       -5.17537
C          5.23039        1.93589       -6.32110
C          1.81973        0.59531       -2.98041
C          2.39604        1.99169       -2.51980
C          2.53308        3.02282       -3.65757
C          1.63869        2.65050       -1.35107
C          0.55268        0.88798       -3.83065
O         -0.19988       -0.31136       -4.06835
C          1.35754       -0.20826       -1.74646
H          5.95533        1.08482        2.36421
H          6.83301        1.30349        0.83639
H          6.40610       -0.33915        1.40736
H          4.37365        1.84058        0.56039
H          3.95978        0.17755        1.09272
H          5.97930       -1.26882       -2.66814
H          4.47992       -3.03798       -1.83816
H          4.89477       -3.06066       -3.47824
H          2.33904       -2.48983       -2.15533
H          2.68108       -3.70207       -3.40667
H          1.35712       -1.76510       -4.31057
H          2.89093       -1.98642       -5.14560
H          2.75810        0.30240       -4.89611
H          4.71374       -0.81947       -4.60341
H          6.30332        0.76453       -3.55903
H          4.96990        1.80469       -3.10188
H          5.23212        2.30166       -7.32720
H          3.39810        1.78062       -2.12611
H          1.55967        3.46113       -3.91938
H          2.97266        2.61718       -4.57668
H          3.17487        3.85362       -3.33378
H          0.57613        2.82559       -1.57435
H          2.08375        3.63433       -1.14822
H          1.69524        2.07083       -0.42128
H          0.84477        1.34591       -4.79011
H         -0.07150        1.61426       -3.28312
H         -1.02676       -0.06765       -4.51050
H          2.16828       -0.42640       -1.03969
H          0.86838       -1.14493       -2.03219
H          0.59947        0.35613       -1.19180
