122

C         26.53785       -2.15855       24.14624
C         26.41222       -1.57607       22.73693
C         25.35573       -2.28198       21.88010
C         25.21946       -1.69534       20.47219
C         24.17089       -2.40029       19.60615
C         24.02627       -1.79203       18.20780
C         22.98208       -2.49442       17.33465
C         22.81384       -1.86025       15.95026
C         21.78402       -2.57442       15.06960
C         21.58354       -1.92119       13.69822
C         20.58454       -2.67364       12.81113
C         20.28690       -2.01241       11.45691
C         21.50089       -1.91318       10.52421
C         21.17919       -1.45849        9.09202
C         20.55583       -0.05890        8.94658
C         21.39953        1.06712        9.56243
C         21.04820        2.47899        9.07207
C         19.58854        2.92151        9.23211
N         19.12212        3.02607       10.64164
C         18.25563        2.14576       11.19228
N         18.34770        1.68622       12.47373
C         17.30551        0.81778       12.67160
N         16.56967        0.71343       11.59772
N         17.14474        1.56230       10.68097
C         16.51022        1.77349        9.36042
C         14.99622        1.60312        9.38511
C         14.22218        2.63958       10.20423
S         14.47243        4.36856        9.70913
C         13.29707        4.53832        8.33422
S         12.35572        3.26889        7.81505
N         13.27221        5.78339        7.80335
C         12.36833        6.07442        6.67048
C         10.92834        6.39667        7.07396
C         14.10171        6.89264        8.30076
C         13.41344        7.78424        9.33809
C         19.84081        3.89928       11.55823
O         20.65618        3.12047       12.42841
C         21.52306        3.92350       13.26973
C         22.23057        3.00212       14.24832
C         23.26439        3.73320       15.11382
C         23.92685        2.80987       16.14252
C         25.00897        3.49917       16.97885
C         25.64619        2.57696       18.02311
C         26.75695        3.24688       18.83704
C         27.38262        2.32896       19.89210
C         28.49926        3.00417       20.69070
H         27.30754       -1.63694       24.73199
H         26.81055       -3.22397       24.11296
H         25.58853       -2.07797       24.69663
H         27.38808       -1.63300       22.22547
H         26.16641       -0.50226       22.80167
H         24.37880       -2.23307       22.39303
H         25.60529       -3.35521       21.80730
H         26.19904       -1.73766       19.96404
H         24.96609       -0.62289       20.54895
H         23.19346       -2.37033       20.11923
H         24.43141       -3.46922       19.51460
H         25.00469       -1.81735       17.69639
H         23.76319       -0.72331       18.30294
H         22.00879       -2.49210       17.85636
H         23.25910       -3.55645       17.21776
H         23.78927       -1.84947       15.43272
H         22.52363       -0.80045       16.07000
H         20.81571       -2.61735       15.59889
H         22.09454       -3.62375       14.92707
H         22.55947       -1.85010       13.19004
H         21.23918       -0.87855       13.83838
H         19.63811       -2.79710       13.36457
H         20.96142       -3.69535       12.63330
H         19.86744       -1.00442       11.63419
H         19.49307       -2.58619       10.94896
H         21.97820       -2.90516       10.46497
H         22.25958       -1.24610       10.96370
H         20.50199       -2.19232        8.62541
H         22.10892       -1.48368        8.50026
H         19.54375       -0.06288        9.38851
H         20.41479        0.13936        7.87010
H         22.45957        0.89356        9.31631
H         21.34277        1.03235       10.66145
H         21.25534        2.55373        7.99113
H         21.71351        3.21421        9.55175
H         18.92967        2.21513        8.71716
H         19.44113        3.90458        8.76099
H         19.16983        1.90322       13.04871
H         17.11905        0.29089       13.60140
H         16.95784        1.06393        8.64883
H         16.76708        2.79823        9.05546
H         14.73828        0.59721        9.74543
H         14.65438        1.66534        8.34149
H         14.49324        2.61684       11.26993
H         13.14463        2.43960       10.10939
H         12.37885        5.19144        6.01675
H         12.81581        6.91677        6.12384
H         10.48818        5.56302        7.63415
H         10.32729        6.55028        6.16710
H         10.86286        7.30837        7.68071
H         14.39602        7.48678        7.42314
H         15.02947        6.47211        8.71551
H         12.53178        8.28417        8.91869
H         14.11159        8.56295        9.67571
H         13.09930        7.20106       10.21315
H         19.11594        4.49232       12.14889
H         20.45080        4.58778       10.95078
H         20.91994        4.68239       13.80200
H         22.24680        4.45362       12.62453
H         22.72442        2.19597       13.68230
H         21.47944        2.52121       14.89790
H         22.78399        4.57773       15.63715
H         24.03916        4.17451       14.46384
H         24.36685        1.94124       15.62230
H         23.15137        2.40056       16.81387
H         24.57709        4.38062       17.48456
H         25.79430        3.88851       16.30761
H         26.05279        1.68208       17.51999
H         24.86325        2.20747       18.70878
H         26.35669        4.14969       19.33120
H         27.54669        3.60279       18.15163
H         27.77576        1.42430       19.39810
H         26.59532        1.97839       20.58081
H         29.31548        3.33526       20.03194
H         28.92975        2.32231       21.43673
H         28.12648        3.89022       21.22534
