74

C          0.96709        1.74707        0.66364
C          2.45598        1.41481        0.53426
C          3.05001        1.81040       -0.82232
C          4.54613        1.50649       -0.95689
C          5.11123        1.84278       -2.34115
C          6.61718        1.59110       -2.47521
C          7.14932        1.87111       -3.88506
C          8.66001        1.65617       -4.02960
C          9.15739        1.90487       -5.45724
C         10.68437        1.71165       -5.60482
C         11.17046        1.94710       -7.00185
N         11.16875        3.25200       -7.45233
C         11.52015        3.68027       -8.67922
C         11.36444        5.14151       -8.95675
C          9.99579        5.46834       -9.60901
C          9.82959        6.96528       -9.88889
C          8.47451        7.30339      -10.52106
C          8.29273        8.80063      -10.79570
C          6.93597        9.14475      -11.41881
C          6.74743       10.64301      -11.68487
C          5.38743       10.98052      -12.30069
C         11.94674        2.70674       -9.61966
C         11.97839        1.32744       -9.20827
C         11.57969        0.98440       -7.89207
C         12.40695        0.35056      -10.14293
C         12.77706        0.71232      -11.41722
C         12.74367        2.07992      -11.83728
C         12.33411        3.05738      -10.93549
C         13.12675        2.42304      -13.16021
C         13.45188        2.70608      -14.29319
H          0.57226        1.44951        1.64471
H          0.37285        1.22870       -0.10387
H          0.78663        2.82620        0.54701
H          2.60833        0.33398        0.69476
H          3.01749        1.92056        1.33820
H          2.88053        2.88836       -0.99400
H          2.49825        1.28863       -1.62468
H          4.72376        0.43804       -0.74140
H          5.10377        2.06654       -0.18555
H          4.89848        2.90111       -2.57511
H          4.57417        1.25231       -3.10442
H          6.84068        0.54475       -2.20295
H          7.16047        2.21648       -1.74536
H          6.90157        2.90957       -4.16834
H          6.61897        1.22635       -4.60747
H          8.91825        0.62663       -3.72827
H          9.19711        2.32134       -3.33140
H          8.87761        2.92874       -5.76448
H          8.64393        1.22762       -6.15904
H         10.96115        0.68981       -5.31085
H         11.21466        2.38688       -4.91076
H         10.86464        3.96628       -6.78895
H         12.18046        5.48726       -9.60636
H         11.46465        5.70317       -8.01399
H          9.18837        5.11881       -8.94404
H          9.89212        4.89571      -10.54427
H         10.64224        7.30554      -10.55354
H          9.94826        7.53089       -8.94849
H          7.66434        6.95270       -9.85812
H          8.36025        6.74090      -11.46393
H          9.10091        9.15056      -11.46144
H          8.41403        9.36130       -9.85231
H          6.12810        8.78858      -10.75525
H          6.81572        8.58841      -12.36523
H          7.55276       10.99713      -12.35048
H          6.87237       11.19705      -10.73908
H          5.24776       10.47119      -13.26588
H          5.28344       12.05947      -12.47780
H          4.56221       10.67139      -11.64199
H         11.59856       -0.05746       -7.57301
H         12.43958       -0.69601       -9.83796
H         13.10462       -0.04238      -12.13202
H         12.31516        4.09617      -11.25985
H         13.74057        2.95464      -15.29420
