78

C          4.42430        0.20197        7.94216
C          4.30153       -0.60235        6.64564
C          4.71779        0.20920        5.42954
O          4.46371       -0.56461        4.24787
C          4.99492        0.01584        3.06418
C          6.51125       -0.04909        2.98600
C          7.24699        1.10560        2.82106
C          8.64792        1.06720        2.76151
C          9.38757       -0.10170        2.86345
C          8.66287       -1.34593        3.00487
C          7.20959       -1.28972        3.06729
C          6.45208       -2.48975        3.19135
C          7.07886       -3.69587        3.17954
N          8.43898       -3.71997        3.09677
C          9.26108       -2.65173        3.07945
C         10.72350       -3.03296        3.01803
C         11.15580       -4.25039        3.85580
C         11.27960       -3.96132        5.35772
S          9.82515       -3.20537        6.12568
C         10.41507       -1.53488        6.54271
S         11.94866       -0.99973        6.17215
N          9.48440       -0.80917        7.20053
C          8.12414       -1.30951        7.49361
C          7.99569       -2.20047        8.74324
C          8.32775       -1.54413       10.09189
C          7.36585       -0.43294       10.52500
C          9.83574        0.53242        7.71656
C          9.65371        1.68820        6.72457
C          8.20859        1.94770        6.28798
C          8.03769        3.25896        5.51907
C         10.89022        0.07331        2.78178
C         11.47012       -0.28596        1.39485
C         11.23721        0.81886        0.38078
Br        11.60562        0.25750       -1.45425
Br        13.39875       -0.66962        1.58439
H          4.16002       -0.41082        8.81340
H          3.75660        1.07497        7.93749
H          5.44803        0.57198        8.10006
H          3.26429       -0.94264        6.50686
H          4.92463       -1.51017        6.69520
H          5.79077        0.46766        5.49220
H          4.15010        1.15834        5.37261
H          4.67978        1.07030        2.96286
H          4.54164       -0.53858        2.22728
H          6.73638        2.06747        2.74913
H          9.18897        2.00701        2.64870
H          5.37215       -2.44415        3.30070
H          6.57807       -4.65944        3.23467
H          8.89877       -4.62939        3.13848
H         11.35144       -2.19477        3.31899
H         10.96495       -3.22824        1.95841
H         12.15121       -4.55028        3.49446
H         10.53132       -5.14495        3.67800
H         12.09706       -3.23978        5.54713
H         11.48610       -4.88368        5.91556
H          7.76235       -1.85539        6.60837
H          7.48400       -0.42453        7.58872
H          8.62433       -3.09220        8.60981
H          6.95276       -2.56103        8.75739
H          9.36454       -1.16981       10.07864
H          8.32000       -2.33632       10.85559
H          7.36691        0.42550        9.83618
H          7.63312       -0.04717       11.51732
H          6.33161       -0.80277       10.57975
H         10.88269        0.48872        8.04261
H          9.20673        0.70181        8.60026
H         10.29560        1.51834        5.84569
H         10.05349        2.58631        7.22410
H          7.55222        1.96906        7.17514
H          7.85868        1.10590        5.66925
H          8.26082        4.12449        6.15851
H          7.00976        3.37927        5.14885
H          8.71616        3.31485        4.65531
H         11.40503       -0.47262        3.58223
H         11.11693        1.12956        2.98726
H         11.05055       -1.22403        1.01423
H         11.86385        1.69565        0.57713
H         10.17934        1.11148        0.37966
