55

O         -2.12382       -1.11722       -0.39385
C         -0.96277       -0.48382       -0.96525
C          0.00738       -0.11512        0.16062
C          0.25350       -1.24620        1.17873
N          0.88624       -2.43959        0.61180
C          0.27694       -3.60929        0.34782
N          1.02844       -4.73025        0.17461
C          2.43251       -4.84376        0.39842
C          3.00992       -4.47990        1.62106
C          4.39159       -4.64005        1.76263
N          5.18792       -5.14050        0.80855
C          4.61261       -5.50554       -0.34477
C          3.24632       -5.37169       -0.60759
N         -1.05144       -3.69348        0.24966
C         -1.79746       -4.95174        0.11881
C         -3.29657       -4.70292        0.27797
C         -4.11383       -5.99190        0.13994
C         -5.62491       -5.75645        0.23918
C         -6.43177       -7.05318        0.11357
C         -7.94430       -6.85191        0.16658
O         -8.37388       -6.19331        1.38558
C         -8.58020       -7.01252        2.46470
O         -8.38944       -8.21369        2.44551
C         -9.06471       -6.21852        3.62096
C         -9.34671       -6.80682        4.78867
O          1.22817        0.37032       -0.38474
H         -2.89977       -0.92270       -0.94120
H         -1.23776        0.42677       -1.51463
H         -0.46721       -1.17495       -1.67624
H         -0.41812        0.72198        0.73658
H         -0.68501       -1.53446        1.67144
H          0.92959       -0.85478        1.95090
H          1.90215       -2.45383        0.57399
H          0.59577       -5.47618       -0.36304
H          2.40628       -4.11529        2.45246
H          4.87729       -4.36533        2.70221
H          5.27694       -5.91956       -1.10736
H          2.83433       -5.66790       -1.57344
H         -1.57698       -2.81624        0.10019
H         -1.44302       -5.65493        0.88920
H         -1.60641       -5.40893       -0.87027
H         -3.62393       -3.97432       -0.48335
H         -3.48369       -4.24164        1.26124
H         -3.80317       -6.70748        0.92018
H         -3.88108       -6.47232       -0.82634
H         -5.93799       -5.04827       -0.54804
H         -5.86071       -5.27049        1.19961
H         -6.13724       -7.76319        0.90155
H         -6.20576       -7.54446       -0.84816
H         -8.46076       -7.81721        0.08290
H         -8.28557       -6.18178       -0.63452
H         -9.18994       -5.14623        3.46482
H         -9.21977       -7.88392        4.90938
H         -9.71389       -6.23569        5.64059
H          1.48995       -0.18675       -1.13707
