80

C         14.13552        0.08890      -15.10197
C         13.55941        1.33872      -14.43189
C         13.62128        1.29047      -12.90120
C         13.06075        2.54447      -12.22330
C         13.08364        2.48087      -10.69256
C         12.55690        3.75237      -10.02059
C         12.50805        3.67526       -8.49131
C         12.03140        4.97234       -7.83158
C         11.91361        4.89464       -6.30649
C         11.53797        6.23610       -5.66693
C         11.58237        6.23985       -4.13044
C         12.98949        6.22367       -3.50828
C         13.77659        7.52165       -3.74318
C         15.01071        7.64332       -2.84229
C         15.45879        9.10792       -2.69734
N         16.54997        9.17702       -1.63702
C         17.69404        8.19980       -1.86611
C         17.12553        6.78612       -2.08394
N         16.14746        6.77384       -3.18790
C         16.72932        6.93277       -4.53215
C         16.50333        5.73858       -5.52226
N         16.44747        4.50347       -4.75352
N         15.26012        5.98521       -6.26751
N         17.65057        5.76637       -6.43628
C         18.25259        5.75364       -2.21672
C         19.08185        5.49770       -0.93818
C         18.22192        5.07396        0.26154
C         20.15190        4.43838       -1.23889
H         14.06976        0.15183      -16.19685
H         13.59524       -0.81725      -14.78926
H         15.19495       -0.05322      -14.84096
H         12.51111        1.47614      -14.74697
H         14.10001        2.23190      -14.78918
H         14.66861        1.14005      -12.58335
H         13.06894        0.40347      -12.54331
H         12.02309        2.70993      -12.56256
H         13.63116        3.42785      -12.56156
H         14.11559        2.28561      -10.34932
H         12.48629        1.61538      -10.35607
H         11.54399        3.97277      -10.40009
H         13.18239        4.61080      -10.32457
H         13.51127        3.41094       -8.10550
H         11.84828        2.84391       -8.18836
H         11.05524        5.26034       -8.25819
H         12.72195        5.79275       -8.09955
H         12.86926        4.53776       -5.88671
H         11.16239        4.13496       -6.03080
H         10.52262        6.51428       -5.99124
H         12.20229        7.02199       -6.06457
H         11.02321        5.36829       -3.75350
H         11.04487        7.12594       -3.75248
H         13.56847        5.37304       -3.89789
H         12.88914        6.05948       -2.42190
H         13.11767        8.38085       -3.52835
H         14.06932        7.59485       -4.80031
H         14.68997        7.31439       -1.83300
H         14.64912        9.76814       -2.35996
H         15.88737        9.51058       -3.62493
H         16.11969        8.95862       -0.72643
H         16.91467       10.13499       -1.56485
H         18.34589        8.26693       -0.98555
H         18.24401        8.55765       -2.74727
H         16.54625        6.52113       -1.18068
H         17.81607        7.06881       -4.45212
H         16.34972        7.83466       -5.03792
H         15.68763        4.54831       -4.07140
H         16.29435        3.70103       -5.36670
H         15.41935        6.68849       -6.99409
H         14.95062        5.13286       -6.73805
H         18.47705        5.37582       -5.97790
H         17.46412        5.19625       -7.26281
H         18.94225        6.04653       -3.02535
H         17.78565        4.81603       -2.55455
H         19.61615        6.42655       -0.66302
H         17.62199        4.18241        0.02239
H         17.53017        5.86148        0.59750
H         18.85610        4.82360        1.12251
H         19.68784        3.47540       -1.49957
H         20.79910        4.27278       -0.36724
H         20.79301        4.73877       -2.07971
