47

C          2.58465        1.80292       -4.92482
C          2.61363        0.87573       -3.70858
C          3.63648       -0.25892       -3.86045
C          3.63213       -1.17351       -2.64864
O          4.54110       -2.31697       -2.87716
C          5.65716       -2.39609       -2.16938
O          6.02896       -1.57779       -1.32726
C          6.43191       -3.67502       -2.48432
C          7.92672       -3.55467       -2.17397
N          8.13978       -3.02676       -0.80591
C          9.08062       -3.61393       -0.15641
C          9.75925       -4.66430       -0.96067
C          8.74003       -4.87776       -2.14690
C          9.33175       -5.24235       -3.47737
C          9.08220       -6.39002       -4.11293
C         11.19430       -4.19950       -1.35065
C         12.14080       -4.02060       -0.15855
C         13.58675       -3.75312       -0.59402
C         14.53810       -3.55937        0.58793
H          1.84707        2.60487       -4.79149
H          2.31879        1.25364       -5.83926
H          3.56382        2.27484       -5.09040
H          1.61192        0.44382       -3.54963
H          2.84455        1.45932       -2.80250
H          4.64493        0.16425       -3.99826
H          3.40662       -0.84922       -4.76168
H          2.65017       -1.64082       -2.49748
H          3.94426       -0.65903       -1.73210
H          6.29218       -3.94870       -3.53795
H          5.98228       -4.48470       -1.88516
H          8.37946       -2.82111       -2.86345
H          7.50399       -2.24437       -0.53119
H          9.33832       -3.29865        0.85729
H          9.86876       -5.58427       -0.36479
H          8.05364       -5.68246       -1.83580
H          9.99126       -4.50150       -3.94049
H          8.42712       -7.15307       -3.68662
H          9.52745       -6.61003       -5.08270
H         11.14078       -3.26677       -1.93576
H         11.59138       -4.97166       -2.02741
H         12.11352       -4.92622        0.47208
H         11.80367       -3.18710        0.48279
H         13.61184       -2.86081       -1.24113
H         13.93359       -4.59404       -1.21678
H         14.23986       -2.69929        1.20509
H         15.56479       -3.37953        0.24388
H         14.55569       -4.44708        1.23660
