82

C         10.17427        0.51274        4.12874
C          9.35664       -0.15585        3.02099
C         10.01426       -0.06177        1.63929
C          9.20763       -0.74466        0.53038
C          9.82550       -0.59307       -0.86356
C          9.03367       -1.31631       -1.95765
C          9.58782       -1.09739       -3.36859
C          8.77534       -1.83343       -4.44154
C          9.26869       -1.60480       -5.89109
C          8.10998       -1.41448       -6.87555
N          7.39849       -2.68708       -7.06351
C          7.98852       -3.88126       -6.91797
N          7.26884       -5.01205       -7.02148
C          5.81642       -5.08326       -7.22116
C          5.35276       -6.53587       -7.10482
C          3.83744       -6.64912       -7.30010
S          3.27440       -8.34687       -7.56009
C          3.59757       -8.57093       -9.32212
S          4.23230       -7.34784      -10.27243
N          3.26884       -9.80951       -9.75622
C          3.51575      -10.21703      -11.15272
C          2.24645      -10.42541      -11.98873
C          1.35239       -9.18680      -12.11510
C          0.08632       -9.45808      -12.93066
C          2.70749      -10.84029       -8.86490
C          1.18617      -10.77972       -8.65332
C          0.72191      -11.82810       -7.63583
C         -0.78915      -11.79773       -7.39333
N          9.30450       -3.93849       -6.64631
C         10.15425       -2.73925       -6.45600
C         11.36417       -3.12288       -5.61158
H          9.67265        0.43347        5.10276
H         10.32941        1.58207        3.92143
H         11.16712        0.04898        4.22830
H          8.35385        0.30206        2.97461
H          9.19154       -1.21731        3.27317
H         11.02405       -0.50695        1.68387
H         10.16553        1.00125        1.38054
H          8.18332       -0.33180        0.51746
H          9.09654       -1.81755        0.76820
H         10.86275       -0.97142       -0.85112
H          9.89828        0.47978       -1.11377
H          7.98167       -0.98169       -1.92774
H          9.01118       -2.39828       -1.73672
H         10.64317       -1.41373       -3.40174
H          9.59003       -0.01795       -3.59830
H          7.72616       -1.50399       -4.36667
H          8.75460       -2.91226       -4.21063
H          9.86667       -0.68123       -5.92937
H          8.47109       -1.04831       -7.84992
H          7.38795       -0.68474       -6.48695
H          6.43763       -2.67139       -7.38517
H          7.77781       -5.88866       -7.07245
H          5.54548       -4.70484       -8.22280
H          5.32165       -4.45807       -6.45893
H          5.64214       -6.95018       -6.12680
H          5.84666       -7.12269       -7.89436
H          3.51339       -6.07394       -8.18105
H          3.28323       -6.30572       -6.41428
H          4.09615      -11.15303      -11.11302
H          4.14552       -9.43944      -11.60023
H          1.66187      -11.27224      -11.59099
H          2.58066      -10.74644      -12.98936
H          1.93037       -8.36841      -12.57180
H          1.07267       -8.82822      -11.11152
H          0.32837       -9.79402      -13.94967
H         -0.53395       -8.55618      -13.01745
H         -0.53068      -10.24094      -12.46423
H          3.22379      -10.77644       -7.89272
H          2.98608      -11.81223       -9.29794
H          0.67044      -10.93748       -9.61234
H          0.90197       -9.77418       -8.30636
H          1.25222      -11.66699       -6.68193
H          1.01969      -12.83225       -7.98220
H         -1.11159      -10.82090       -7.00391
H         -1.09059      -12.56241       -6.66507
H         -1.34809      -11.98501       -8.32187
H          9.69139       -4.83728       -6.37905
H         10.51499       -2.42374       -7.45001
H         11.07522       -3.48032       -4.61428
H         12.02333       -2.25514       -5.48724
H         11.94957       -3.90909       -6.10907
