71

C          1.08539        6.82014        2.01362
C          2.52809        7.21283        1.68890
C          3.11668        6.41894        0.51835
C          4.55648        6.80910        0.17023
C          5.14248        5.98794       -0.98254
C          6.56904        6.39481       -1.36572
C          7.16542        5.50999       -2.46587
C          8.56355        5.96059       -2.91406
C          9.15849        4.98919       -3.92557
N         10.52221        5.41481       -4.41796
C         10.51427        6.61137       -5.37157
C         11.30515        6.16689       -6.60985
C         12.20343        4.99953       -6.14738
C         11.28457        4.27826       -5.13046
C         11.85683        3.28251       -4.15227
C         12.53533        3.65670       -2.98388
C         13.05456        2.70890       -2.10045
C         12.90276        1.35298       -2.39321
C         12.23849        0.94415       -3.55078
C         11.71318        1.89933       -4.43342
O         11.05606        1.59046       -5.58730
C         10.86471        0.20527       -5.91469
C         13.62602        5.38586       -5.67860
C         14.50024        5.60370       -6.92392
O         14.06141        5.83789       -8.03458
O         15.80643        5.51204       -6.61079
C         16.76092        5.75064       -7.70028
C         17.10499        7.22251       -7.81580
C         13.75297        6.63031       -4.77537
H          0.68957        7.40162        2.85712
H          1.01283        5.75526        2.28019
H          0.42322        6.99066        1.15182
H          3.16109        7.06700        2.58031
H          2.57451        8.29007        1.45659
H          2.47731        6.55572       -0.37153
H          3.07786        5.34115        0.75574
H          5.19434        6.69025        1.06348
H          4.59143        7.88191       -0.08809
H          4.48914        6.08201       -1.86734
H          5.12970        4.91861       -0.70792
H          7.21719        6.35134       -0.47344
H          6.57288        7.44780       -1.69655
H          6.49097        5.50431       -3.33889
H          7.21361        4.46783       -2.10715
H          9.22908        6.02318       -2.03507
H          8.50087        6.97495       -3.34049
H          8.52946        4.88581       -4.82149
H          9.29193        3.99340       -3.47951
H         11.06885        5.66942       -3.58547
H         10.97505        7.45591       -4.84784
H          9.47037        6.86407       -5.58651
H         11.88169        6.98992       -7.04525
H         10.61678        5.81403       -7.38903
H         12.33608        4.30590       -6.98865
H         10.50798        3.77131       -5.72019
H         12.68404        4.71364       -2.74521
H         13.57691        3.02757       -1.19934
H         13.30765        0.59891       -1.71760
H         12.13170       -0.11789       -3.76295
H         10.31013        0.20137       -6.85815
H         10.27762       -0.30798       -5.13864
H         11.82993       -0.30371       -6.05300
H         14.05543        4.52888       -5.13681
H         16.32670        5.35920       -8.62873
H         17.63254        5.14801       -7.41810
H         16.22628        7.81538       -8.09961
H         17.86700        7.35576       -8.59616
H         17.51490        7.60971       -6.87364
H         13.40056        7.54122       -5.27905
H         14.80431        6.78888       -4.50715
H         13.20093        6.52221       -3.82988
