70

C          1.03178       -0.13712       -0.46374
C          2.55940       -0.09132       -0.37477
C          3.19080       -1.46142       -0.10509
C          4.72077       -1.43729       -0.02744
C          5.33340       -2.81043        0.26465
C          6.86508       -2.81860        0.30380
C          7.44621       -4.19588        0.63789
C          8.97735       -4.25424        0.62221
C          9.51702       -5.64292        0.98004
C         11.04578       -5.74864        0.94502
C         11.52839       -7.16469        1.27146
C         13.07040       -7.31012        1.23276
C         13.45967       -8.72993        1.49210
C         13.53100       -9.28503        2.79379
C         13.80439      -10.62790        2.93318
C         14.02005      -11.42572        1.79126
N         13.94692      -10.78501        0.60229
N         13.66930       -9.49758        0.42079
N         14.18280      -11.54704       -0.58385
C         15.24444      -10.91914       -1.39133
C         12.91499      -11.71755       -1.31857
C         14.34161      -12.88785        1.86735
C         15.84439      -13.21538        1.67390
C         16.75978      -12.41370        2.60560
C         18.22852      -12.81961        2.45348
S         19.25200      -11.63002        3.36297
O         19.16426      -10.34855        2.69702
O         18.98688      -11.75777        4.77700
Cl        21.14099      -12.39875        2.99741
H          0.60825        0.85848       -0.65426
H          0.58823       -0.51296        0.47049
H          0.69866       -0.80041       -1.27599
H          2.86249        0.61072        0.42037
H          2.97117        0.31973       -1.31220
H          2.87810       -2.16739       -0.89500
H          2.78434       -1.86843        0.83800
H          5.03775       -0.72194        0.75168
H          5.12846       -1.04854       -0.97730
H          4.98808       -3.53189       -0.49696
H          4.94336       -3.18308        1.22841
H          7.21954       -2.08100        1.04489
H          7.25777       -2.48030       -0.67115
H          7.05074       -4.93867       -0.07752
H          7.08063       -4.51206        1.63077
H          9.38415       -3.50797        1.32646
H          9.34624       -3.96255       -0.37645
H          9.08801       -6.38618        0.28498
H          9.15575       -5.92522        1.98437
H         11.48725       -5.03194        1.65815
H         11.41599       -5.45732       -0.05260
H         11.09137       -7.87845        0.55308
H         11.15900       -7.46383        2.26754
H         13.52878       -6.65589        1.98979
H         13.45225       -7.01041        0.24749
H         13.36958       -8.64911        3.66485
H         13.86778      -11.09782        3.91406
H         16.14384      -10.79376       -0.77561
H         14.95159       -9.94724       -1.81894
H         15.47458      -11.61930       -2.20295
H         12.17837      -12.20987       -0.67154
H         13.12293      -12.37750       -2.16854
H         12.50577      -10.76248       -1.68969
H         13.76013      -13.43544        1.11538
H         14.01765      -13.23376        2.85959
H         16.11774      -13.03946        0.62394
H         15.96157      -14.29435        1.85349
H         16.45535      -12.54916        3.65509
H         16.67079      -11.33816        2.38223
H         18.57685      -12.77440        1.41248
H         18.44749      -13.81004        2.87344
