70

C         10.97292       -1.15612        7.05831
C         11.03885       -0.49171        5.68119
C         11.85856        0.80310        5.67470
C         11.98418        1.44663        4.29017
C         12.77973        2.75518        4.29742
C         12.99372        3.35242        2.90247
C         13.70438        4.70699        2.95053
C         13.95048        5.37024        1.59515
N         12.72953        5.51539        0.76299
C         11.53263        6.02305        1.10683
N         10.42559        5.51517        0.53586
N         11.39903        7.05772        1.97498
C         10.27505        7.19937        2.95600
C          8.85343        7.15145        2.36488
O          8.84390        7.73407        1.05265
C         10.38996        6.18341        4.09463
C         12.40737        8.10358        1.99526
O         13.12917        8.02353        3.21156
C         14.20385        8.89921        3.39146
C         14.89342        9.45081        2.30609
C         16.01996       10.26367        2.50011
C         16.74418       10.86379        1.32255
C         16.43028       10.51023        3.81450
C         15.72478        9.96657        4.88748
C         14.59661        9.15221        4.72090
C         13.88658        8.60841        5.95350
C         12.42699        9.08702        6.07185
C         14.00956        7.08031        6.09714
H         10.38247       -2.08179        7.02973
H         10.51207       -0.49101        7.80351
H         11.97749       -1.41542        7.42355
H         10.01723       -0.27794        5.32294
H         11.47245       -1.19730        4.95228
H         12.86897        0.59525        6.06821
H         11.40590        1.52550        6.37712
H         10.97563        1.63365        3.87833
H         12.46322        0.73060        3.59953
H         13.76110        2.58680        4.77272
H         12.26299        3.49504        4.93421
H         12.01062        3.45697        2.40881
H         13.56953        2.64487        2.28058
H         14.69161        4.59925        3.42761
H         13.14815        5.40136        3.59322
H         14.62717        4.76086        0.98104
H         14.43679        6.34539        1.72944
H         12.72002        4.96380       -0.08910
H         10.45441        4.62138        0.06098
H          9.63663        6.15513        0.38211
H         10.43361        8.21035        3.35562
H          8.19268        7.70617        3.04814
H          8.49521        6.10786        2.32615
H          7.94324        8.02494        0.83940
H         10.34328        5.15382        3.71267
H          9.55902        6.31617        4.80143
H         11.32491        6.31622        4.64784
H         11.89701        9.08053        1.92059
H         13.04589        7.97140        1.11038
H         14.57448        9.25685        1.28141
H         16.54260       10.30983        0.39634
H         17.83007       10.87231        1.48480
H         16.43276       11.90681        1.15870
H         17.30386       11.13606        4.00333
H         16.05609       10.18024        5.90595
H         14.42785        9.04565        6.80816
H         11.79803        8.67448        5.27230
H         12.36642       10.18214        6.01766
H         11.99855        8.77162        7.03374
H         13.44656        6.55385        5.31595
H         13.61925        6.75319        7.07131
H         15.05757        6.75910        6.02638
