59

Br         1.09410        0.16009       -1.20768
C          3.02101        0.49516       -0.88641
C          3.27544        1.84783       -0.24640
C          2.93745        1.99830        1.24808
N          1.48898        2.09274        1.51610
C          0.72125        1.11935        1.98605
N         -0.56851        1.55063        2.00661
C         -0.60183        2.87484        1.52059
C          0.69462        3.19054        1.22540
C         -1.75707        3.83059        1.45736
O         -1.15158        5.08957        1.24074
C         -1.97521        6.20148        1.08529
C         -3.35386        6.14476        1.28841
C         -4.14983        7.29403        1.14156
C         -5.63705        7.22267        1.37347
C         -3.51943        8.48799        0.78624
C         -2.13729        8.52744        0.58437
C         -1.32241        7.40022        0.72330
C          0.17573        7.51904        0.47628
C          1.02528        7.23105        1.72936
C          0.64397        6.71543       -0.75287
C         -1.54221        0.56150        2.50702
O         -1.16213       -0.26666        3.28294
C         -2.89774        0.41710        1.76940
C         -4.04200       -0.29957        2.60288
C         -4.29893        0.19920        4.08294
C         -4.08622        1.72524        4.28735
O         -3.02178        2.22897        3.99098
O         -5.09686        2.40616        4.81085
F         -5.58312       -0.14814        4.41180
F         -3.46222       -0.44355        4.93084
F         -5.18531       -0.09268        1.89846
F         -3.78666       -1.62206        2.64705
F         -3.38019        1.59124        1.29585
F         -2.61831       -0.37366        0.69101
Br         5.22544        2.14432       -0.35773
H          3.47238        0.44376       -1.88025
H          3.38232       -0.33671       -0.27168
H          2.83050        2.65789       -0.83725
H          3.39362        2.91629        1.63747
H          3.33201        1.15152        1.82427
H          1.03838        0.12914        2.28928
H          1.10142        4.12850        0.86796
H         -2.32918        3.79353        2.40027
H         -2.43780        3.57439        0.62793
H         -3.83694        5.20934        1.57371
H         -5.86487        6.93435        2.41076
H         -6.11014        6.47820        0.71631
H         -6.11610        8.19057        1.18339
H         -4.10912        9.39752        0.66424
H         -1.66611        9.47202        0.30444
H          0.34163        8.58037        0.22972
H          0.92675        6.19090        2.06878
H          0.72042        7.87577        2.56461
H          2.08748        7.42810        1.52396
H          0.48111        5.63549       -0.62825
H          1.71467        6.88424       -0.93771
H          0.09498        7.02148       -1.65313
H         -5.85678        1.81018        4.98017
