67

C         -0.49731        0.12026        6.14807
C          0.83730       -0.47950        6.59396
C          1.95918       -0.26167        5.57458
C          3.30002       -0.87301        5.99113
C          4.42119       -0.60480        4.98397
C          5.76842       -1.22031        5.37885
C          6.87171       -0.90331        4.36469
C          8.27285       -1.41115        4.74486
C          9.35425       -1.00799        3.73389
C          9.28635       -1.88829        2.48940
N          9.38557       -3.29025        2.90138
C          8.78498       -3.75294        4.01075
N          8.71232       -5.08888        4.27072
C          8.46925       -5.53838        5.61883
C          9.46179       -5.37945        6.59282
C          9.25827       -5.82897        7.89784
C          8.05553       -6.45965        8.22350
C          7.05723       -6.63920        7.26376
C          7.24740       -6.17754        5.95174
O          6.34170       -6.30389        4.94652
C          5.08847       -6.94176        5.23887
C          8.83607       -6.12516        3.22357
C          7.88022       -5.84661        2.03791
O          7.09331       -4.92432        1.98209
O          8.03546       -6.80152        1.10606
C          7.16801       -6.71373       -0.07769
C          7.76395       -5.79978       -1.13123
C         10.28469       -6.45199        2.82246
N          8.29455       -2.87954        4.90200
H         -1.28146       -0.03618        6.90092
H         -0.84300       -0.33440        5.20757
H         -0.40981        1.20380        5.97901
H          0.71544       -1.56063        6.77666
H          1.13669       -0.03999        7.56026
H          2.08979        0.82186        5.40787
H          1.65353       -0.68226        4.60044
H          3.17871       -1.96257        6.12559
H          3.59283       -0.47482        6.97825
H          4.54528        0.48497        4.86202
H          4.12418       -0.98928        3.99299
H          5.64278       -2.31287        5.47614
H          6.06368       -0.84630        6.37489
H          6.95061        0.19085        4.25221
H          6.58987       -1.30414        3.37702
H          8.53926       -0.99505        5.73008
H         10.35039       -1.10364        4.18938
H          9.21494        0.04418        3.45605
H         10.12782       -1.67991        1.81718
H          8.35402       -1.72331        1.92561
H          9.73137       -3.96528        2.23258
H         10.40082       -4.89997        6.31077
H         10.03806       -5.70109        8.64757
H          7.88779       -6.82349        9.23763
H          6.12846       -7.13612        7.53820
H          4.52592       -6.92020        4.30042
H          4.53498       -6.38946        6.01270
H          5.23795       -7.98384        5.55846
H          8.42317       -7.03097        3.69061
H          6.17787       -6.37048        0.24799
H          7.10476       -7.75124       -0.42556
H          7.80334       -4.76043       -0.78125
H          7.13253       -5.82653       -2.03007
H          8.77201       -6.12704       -1.41751
H         10.78729       -5.64073        2.27680
H         10.29387       -7.33593        2.17524
H         10.87656       -6.67078        3.71990
H          7.79869       -3.28503        5.69049
