59

C          4.38545        0.17759       10.85942
C          4.69178       -0.09960        9.38544
C          5.44209        1.04712        8.69863
C          5.75224        0.77408        7.22241
C          6.49925        1.93070        6.54402
C          6.79234        1.62872        5.08238
O          7.42239        2.78133        4.41537
C          8.75354        2.86494        4.46735
O          9.49757        2.05446        4.99563
C          9.21716        4.14301        3.76943
C         10.74434        4.34426        3.67949
C         11.49342        3.18705        2.94991
C         12.37003        2.49193        4.01083
C         12.16522        3.30176        5.22286
N         11.34777        4.28422        5.07182
C         10.95164        5.22621        6.12619
C         12.07014        5.52374        7.12782
O         11.59499        6.62955        7.86629
C         12.48751        7.05270        8.88395
C         11.91316        8.32027        9.51235
F         10.67953        8.11271       10.02646
F         12.72786        8.72514       10.51564
F         11.82136        9.32736        8.61221
C         11.02095        5.71244        3.01677
C         12.49338        6.10171        2.98385
O         13.24295        6.01212        3.94121
O         12.84275        6.57051        1.77796
C         14.21161        7.05196        1.65353
H          3.84565       -0.66060       11.31980
H          3.76319        1.07698       10.97695
H          5.30796        0.33508       11.43788
H          3.75120       -0.29279        8.84278
H          5.28581       -1.02508        9.29890
H          6.38465        1.24240        9.24014
H          4.84753        1.97368        8.78157
H          4.81048        0.57772        6.68189
H          6.35049       -0.14952        7.13963
H          7.44629        2.12000        7.07497
H          5.89978        2.85294        6.60736
H          5.87256        1.47172        4.50586
H          7.45395        0.76037        4.96630
H          8.73225        4.99826        4.26585
H          8.81342        4.14346        2.74614
H         12.11045        3.58994        2.13810
H         10.78226        2.48504        2.50341
H         13.44141        2.45860        3.75715
H         12.06408        1.45518        4.22207
H         12.64147        3.11913        6.18707
H         10.06217        4.82552        6.63509
H         10.67096        6.17233        5.64865
H         13.00075        5.76823        6.58172
H         12.26068        4.66096        7.79618
H         13.48519        7.29678        8.47864
H         12.59396        6.29267        9.67827
H         10.47821        6.51992        3.53425
H         10.61966        5.68017        1.99591
H         14.31045        7.35938        0.60969
H         14.91838        6.24949        1.89568
H         14.37203        7.90114        2.32851
