78

C         14.79287        2.04766       -8.33832
C         14.54346        1.80154       -6.84807
C         14.56486        0.31683       -6.46577
C         14.31360        0.06019       -4.97621
C         14.27017       -1.42641       -4.60714
C         14.01808       -1.68403       -3.11739
C         13.85215       -3.16775       -2.77154
C         13.59495       -3.43040       -1.28365
C         13.33909       -4.90573       -0.95756
C         13.09307       -5.18121        0.52964
C         12.76272       -6.64643        0.83306
C         12.61640       -6.94150        2.33113
C         12.45944       -8.42687        2.68931
C         13.67441       -9.30897        2.36227
N         14.88692       -8.95933        3.14326
C         14.90424       -9.30995        4.57923
C         16.09020      -10.09585        4.90942
C         17.08058      -10.73223        5.18235
O         14.78761       -8.10374        5.34603
C         15.92400       -7.29494        5.19402
N         16.30799       -7.23126        3.76980
C         15.72730       -7.96212        2.79986
N         16.00523       -7.68566        1.50755
C         16.27066       -8.71323        0.48699
C         17.72453       -8.62856        0.00675
C         18.14395       -9.90748       -0.73132
S         19.94180      -10.11857       -0.79805
C         20.30255      -10.64715        0.84821
S         19.17778      -10.94947        2.02401
N         21.67410      -10.79893        1.04969
C         22.72567      -10.48367        0.17454
C         23.86855      -10.83405        0.83118
N         23.57896      -11.36462        2.08557
C         22.28191      -11.33440        2.19633
H         14.76352        3.11907       -8.58019
H         14.03429        1.54698       -8.95855
H         15.77686        1.66471       -8.64814
H         13.56964        2.23377       -6.56106
H         15.29934        2.34163       -6.25262
H         15.53747       -0.12034       -6.75452
H         13.80555       -0.22100       -7.06127
H         13.35936        0.53221       -4.68228
H         15.09460        0.56543       -4.38066
H         15.21724       -1.90862       -4.90820
H         13.47988       -1.92145       -5.19901
H         13.11086       -1.13827       -2.80377
H         14.84600       -1.25579       -2.52505
H         14.75153       -3.72343       -3.09268
H         13.01647       -3.58331       -3.36159
H         12.72561       -2.83484       -0.95485
H         14.45149       -3.06180       -0.69109
H         14.19630       -5.51284       -1.30445
H         12.47086       -5.25867       -1.54050
H         12.27564       -4.53665        0.89453
H         13.98635       -4.88228        1.11000
H         13.55342       -7.27803        0.39360
H         11.83259       -6.93052        0.31305
H         11.73929       -6.40294        2.72190
H         13.47447       -6.51533        2.88026
H         11.60688       -8.85919        2.14042
H         12.20965       -8.52473        3.75742
H         13.92178       -9.25116        1.29753
H         13.46371      -10.36544        2.57662
H         13.98816       -9.87576        4.79372
H         17.95170      -11.31097        5.41746
H         16.78896       -7.68181        5.76257
H         15.64546       -6.29668        5.55771
H         17.18875       -6.77471        3.55148
H         16.37727       -6.75752        1.32408
H         15.55615       -8.60881       -0.34423
H         16.10920       -9.69028        0.96090
H         18.36243       -8.51606        0.89471
H         17.87805       -7.74790       -0.63550
H         17.82906       -9.91199       -1.78442
H         17.73880      -10.80234       -0.23645
H         22.55824      -10.03543       -0.79723
H         24.89231      -10.73593        0.48379
H         21.68441      -11.67592        3.03424
