87

C          0.59481        0.21395       -0.27275
C          2.12465        0.16617       -0.24131
C          2.67922       -0.74680        0.85710
C          4.20897       -0.81308        0.89841
C          4.74974       -1.73127        1.99841
C          6.27844       -1.81747        2.04090
C          6.80595       -2.73096        3.15103
C          8.33273       -2.84358        3.19079
C          8.85000       -3.73714        4.32212
C         10.37527       -3.86901        4.35496
C         10.89536       -4.73685        5.50518
C         12.42117       -4.86762        5.52696
C         12.95696       -5.71458        6.68572
C         14.48413       -5.83313        6.68940
C         15.04465       -6.66469        7.84789
C         16.57153       -6.78648        7.80968
C         17.16073       -7.61150        8.95922
C         18.68124       -7.77334        8.85037
C         19.28303       -8.60275        9.98806
C         20.79815       -8.85366        9.78742
C         21.36276       -9.69094       10.89047
C         22.08741       -9.14987       11.97269
C         22.54734       -9.98407       12.98191
C         23.37890       -9.50457       14.14796
C         23.21462       -8.04945       14.46781
C         24.10887       -7.07252       14.28137
Br        25.81076       -7.36059       13.51147
Br        21.52660       -7.57864       15.23150
C         22.22506      -11.34522       12.86181
N         21.52912      -11.77928       11.80320
N         21.09574      -11.00252       10.81592
C         21.17698      -13.21715       11.58742
C         21.33219      -14.11767       12.80288
C         20.82349      -15.52474       12.47641
F         21.01176      -16.33050       13.59445
H          0.22564        0.87424       -1.06960
H          0.18770        0.58384        0.68040
H          0.16828       -0.78572       -0.44529
H          2.52324        1.18551       -0.10189
H          2.50326       -0.17338       -1.22047
H          2.27482       -1.76568        0.72047
H          2.30279       -0.40498        1.83783
H          4.61602        0.20406        1.03829
H          4.58633       -1.15559       -0.08148
H          4.33311       -2.74517        1.86282
H          4.37756       -1.38340        2.97839
H          6.69891       -0.80445        2.17058
H          6.65131       -2.17472        1.06458
H          6.37085       -3.73896        3.03013
H          6.44267       -2.36325        4.12712
H          8.77164       -1.83523        3.29331
H          8.69569       -3.23187        2.22258
H          8.39896       -4.74105        4.22934
H          8.49739       -3.33821        5.28981
H         10.82660       -2.86349        4.42627
H         10.72570       -4.28761        3.39485
H         10.44235       -5.74195        5.43973
H         10.55100       -4.31370        6.46544
H         12.87121       -3.86029        5.57603
H         12.76254       -5.30204        4.57068
H         12.51089       -6.72375        6.63965
H         12.62026       -5.27930        7.64312
H         14.92682       -4.82200        6.72181
H         14.81556       -6.27490        5.73303
H         14.59638       -7.67363        7.82639
H         14.73377       -6.21547        8.80740
H         17.01875       -5.77724        7.82043
H         16.87322       -7.23915        6.84884
H         16.68885       -8.60951        8.97387
H         16.90476       -7.13870        9.92322
H         19.15893       -6.77900        8.82712
H         18.92609       -8.25168        7.88641
H         18.77395       -9.57849       10.05188
H         19.11882       -8.09867       10.95533
H         21.33901       -7.89769        9.73977
H         20.95338       -9.37755        8.83283
H         22.28615       -8.07789       12.00926
H         24.44192       -9.68596       13.90515
H         23.15011      -10.11189       15.03766
H         23.93318       -6.03670       14.56271
H         22.51542      -12.08981       13.60007
H         21.80698      -13.55023       10.74891
H         20.14108      -13.19188       11.22467
H         20.75401      -13.73086       13.65666
H         22.38539      -14.20775       13.11031
H         21.37749      -15.97411       11.63639
H         19.74785      -15.52128       12.23695
