64

C          6.48045        9.07627        6.94380
C          6.48770        8.62683        5.48075
C          6.63348        7.11038        5.31594
C          6.60455        6.63955        3.85840
C          6.78121        5.12421        3.71383
C          6.68241        4.64089        2.26327
C          6.95767        3.13294        2.02445
C          8.40610        2.76413        2.28300
C          9.25836        2.99840        1.20402
C         10.65561        2.87000        1.26373
C         11.24613        2.51528        2.45262
C         10.43753        2.23626        3.58277
C          8.98470        2.31252        3.52162
C          8.25435        1.91913        4.71122
C          6.76491        1.69516        4.83422
C          6.30771        0.36398        4.18407
C          6.89637       -0.89804        4.83124
C          6.42537       -1.16094        6.26956
C          7.14439       -2.32645        6.96588
C          8.61691       -2.05128        7.29438
C          8.97094        1.59864        5.84273
N         10.33315        1.60699        5.85982
C         11.07876        1.88641        4.79388
C         12.57022        1.80606        5.00772
O         12.79203        1.42504        6.34651
C         14.18061        1.32551        6.69271
H          6.38633       10.16710        7.02826
H          7.40781        8.78317        7.45827
H          5.64049        8.62823        7.49497
H          7.30882        9.12990        4.94272
H          5.55813        8.95728        4.98822
H          5.82585        6.60576        5.87572
H          7.57715        6.78274        5.78861
H          7.39622        7.15458        3.28690
H          5.65047        6.94297        3.39445
H          6.01406        4.62092        4.32681
H          7.75623        4.83968        4.14654
H          7.37981        5.22406        1.63860
H          5.67467        4.85723        1.87507
H          6.75636        2.92125        0.96458
H          6.24682        2.52116        2.58361
H          8.80684        3.31709        0.26264
H         11.26050        3.06842        0.37920
H         12.33059        2.44453        2.52571
H          6.19589        2.53252        4.42451
H          6.51644        1.67464        5.90448
H          6.56488        0.37325        3.11354
H          5.20802        0.33157        4.23691
H          7.99742       -0.84813        4.79278
H          6.62418       -1.76456        4.20850
H          5.34133       -1.35815        6.25331
H          6.54804       -0.25628        6.89169
H          7.06854       -3.23004        6.33877
H          6.61007       -2.56231        7.89863
H          9.21867       -1.86947        6.39114
H          9.07231       -2.90170        7.81876
H          8.71663       -1.17296        7.95292
H          8.49282        1.29658        6.77097
H         10.85744        1.36412        6.70902
H         13.03068        2.78980        4.78743
H         13.00728        1.07078        4.30306
H         14.21580        1.02146        7.74359
H         14.68499        2.29794        6.57364
H         14.68607        0.56742        6.07313
