94

C          0.57995       -0.01241        0.09768
C          2.10618        0.10193        0.11397
C          2.62745        1.41930       -0.47192
C          4.15570        1.52329       -0.47210
C          4.69565        2.80226       -1.12092
C          6.22498        2.88904       -1.09943
C          6.79846        4.09855       -1.84504
C          8.32549        4.18604       -1.75582
C          8.94542        5.30694       -2.59613
C         10.46740        5.38870       -2.44262
C         11.13608        6.45913       -3.31108
C         12.64356        6.56358       -3.05976
C         13.36284        7.57425       -3.95860
C         14.84825        7.71651       -3.60441
C         15.59137        8.65903       -4.56494
C         17.03030        9.02257       -4.13362
C         17.90373        7.78738       -3.88881
C         19.41022        8.00812       -3.74843
O         19.95173        6.77339       -3.34951
C         21.37874        6.78339       -3.19811
C         21.81106        5.41106       -2.70863
C         23.32607        5.28606       -2.51634
C         23.74523        3.90467       -1.99740
C         25.25619        3.76146       -1.80464
C         17.04234       10.01501       -2.94680
N         16.96854       11.36407       -3.51153
C         17.36351       11.51898       -4.76213
S         17.73843       10.06048       -5.55426
C         17.43978       12.86285       -5.42161
C         16.59962       12.90956       -6.68686
C         17.20506       12.85233       -7.94834
C         16.42461       12.85496       -9.10322
C         15.02238       12.90898       -9.03356
C         14.42855       12.97235       -7.76346
C         15.20306       12.96999       -6.60328
C         14.18777       12.89527      -10.28597
H          0.24322       -0.96957        0.51940
H          0.18573        0.05506       -0.92749
H          0.11109        0.79176        0.68430
H          2.54447       -0.73982       -0.44898
H          2.47377       -0.00552        1.14875
H          2.20082        2.26634        0.09402
H          2.25363        1.52983       -1.50543
H          4.57756        0.64862       -0.99833
H          4.52612        1.45501        0.56609
H          4.27007        3.68444       -0.61094
H          4.34030        2.85713       -2.16514
H          6.64554        1.96700       -1.53903
H          6.57340        2.90606       -0.05151
H          6.35307        5.02696       -1.44599
H          6.49402        4.04903       -2.90538
H          8.76200        3.22096       -2.06765
H          8.61880        4.31922       -0.69982
H          8.49544        6.27475       -2.31316
H          8.68856        5.15313       -3.65889
H         10.90956        4.40524       -2.68006
H         10.71209        5.57817       -1.38254
H         10.66417        7.43892       -3.11976
H         10.95214        6.23671       -4.37668
H         13.10522        5.56992       -3.19625
H         12.81394        6.83071       -2.00174
H         12.87145        8.55992       -3.87931
H         13.26285        7.26778       -5.01386
H         15.32116        6.72236       -3.61754
H         14.92807        8.07640       -2.56348
H         15.01254        9.59034       -4.69005
H         15.63691        8.19541       -5.56305
H         17.73000        7.05695       -4.69329
H         17.54851        7.30460       -2.96452
H         19.64524        8.79842       -3.00214
H         19.84832        8.34786       -4.71133
H         21.66902        7.57175       -2.47528
H         21.85268        7.02888       -4.16865
H         21.46085        4.65593       -3.43064
H         21.29339        5.19968       -1.75902
H         23.67790        6.06040       -1.81217
H         23.84089        5.48779       -3.47198
H         23.38660        3.13222       -2.69824
H         23.22964        3.70762       -1.04242
H         25.79737        3.91369       -2.75022
H         25.51900        2.76325       -1.42965
H         25.63893        4.49793       -1.08251
H         17.96388        9.93221       -2.34874
H         16.18246        9.83958       -2.28723
H         16.73563       12.17137       -2.93538
H         18.49628       13.06429       -5.65997
H         17.12374       13.63070       -4.69853
H         18.29363       12.82020       -8.03204
H         16.91369       12.82316      -10.07855
H         13.34155       13.02962       -7.68220
H         14.71073       13.02910       -5.62927
H         14.55368       13.63007      -11.01631
H         13.13536       13.11884      -10.07401
H         14.23021       11.90955      -10.77330
