52

C          0.70971       -0.69852        0.65573
C          2.20471       -0.78926        0.96797
C          2.97399       -1.68041       -0.01290
C          4.46697       -1.79324        0.31079
C          5.24231       -2.67298       -0.67483
C          6.72279       -2.82813       -0.30872
C          7.50063       -3.68409       -1.31824
C          8.92882       -3.92152       -0.87205
O          9.61830       -4.70124       -1.90659
C         10.88210       -5.09401       -1.60242
S         10.84275       -6.75973       -0.62643
C         10.19411       -7.81746       -1.95439
C          9.94700       -9.20966       -1.37018
O         10.42954       -9.57330       -0.31496
O          9.17070       -9.92433       -2.18119
C          8.89152      -11.29317       -1.74957
C         12.61279       -7.19324       -0.54171
C         13.26746       -6.54883        0.68238
C         14.79362       -6.80211        0.67419
C         15.44925       -6.23959       -0.49976
C         15.96641       -5.76602       -1.48616
H          0.18724       -0.05532        1.37656
H          0.23431       -1.68993        0.68910
H          0.53674       -0.28207       -0.34754
H          2.34551       -1.17369        1.99243
H          2.64633        0.22146        0.96000
H          2.84892       -1.28710       -1.03693
H          2.52452       -2.68900       -0.01876
H          4.58661       -2.19730        1.33150
H          4.91447       -0.78440        0.32891
H          5.15825       -2.24929       -1.69021
H          4.77436       -3.67177       -0.72106
H          6.79960       -3.27725        0.69689
H          7.18954       -1.83118       -0.23639
H          7.50882       -3.19220       -2.30309
H          6.99858       -4.65636       -1.44865
H          8.96205       -4.48541        0.07673
H          9.48229       -2.97684       -0.74129
H         11.44296       -4.42040       -0.93299
H         11.44878       -5.31764       -2.51713
H         10.91227       -7.86013       -2.78657
H          9.27066       -7.34100       -2.31239
H          8.25133      -11.70927       -2.53090
H          8.37706      -11.27656       -0.78229
H          9.82924      -11.85399       -1.66542
H         13.08959       -6.87223       -1.48104
H         12.61886       -8.28994       -0.47567
H         12.83432       -6.96594        1.60219
H         13.09377       -5.46225        0.69246
H         14.99240       -7.88517        0.73114
H         15.22325       -6.36206        1.58743
H         16.46344       -5.34944       -2.33804
