83

C          7.08140       -5.34759       -6.28573
C          6.55302       -3.94012       -6.56962
C          7.04452       -2.89900       -5.55874
C          6.50622       -1.48980       -5.82219
C          7.00400       -0.45036       -4.81208
C          6.44126        0.95323       -5.06940
C          6.84873        2.01471       -4.03059
C          8.33675        2.35183       -4.06165
N          8.78539        3.20001       -2.92319
C          9.85651        3.92406       -3.29746
N         10.61192        4.65737       -2.48190
C         10.41000        4.82248       -1.03246
C         11.15233        6.06665       -0.53978
C         10.59537        7.38744       -1.08491
C         11.45295        8.60351       -0.71859
C         10.88169        9.91224       -1.27454
C         11.81337       11.09421       -1.02139
O         11.23197       12.34028       -1.47181
C         11.37729       12.62003       -2.80353
O         11.93572       11.87737       -3.59144
C         10.76663       13.93536       -3.11782
C         10.81257       14.43767       -4.35658
N         10.06062        3.80928       -4.62945
C          8.87784        3.17472       -5.26890
C          7.95532        4.21609       -5.92566
C          7.45850        5.36775       -5.03760
P          6.43246        6.54538       -5.98591
O          5.42163        5.89523       -6.85267
O          5.84507        7.57435       -4.89745
C          4.44377        7.50491       -4.47813
C          3.97640        8.90170       -4.12772
O          7.58716        7.40292       -6.69384
C          7.22080        8.45164       -7.65114
C          8.48912        8.97874       -8.28605
H          6.71428       -6.07090       -7.02598
H          6.76467       -5.69858       -5.29244
H          8.18093       -5.37393       -6.31155
H          5.45031       -3.95154       -6.56948
H          6.85305       -3.62907       -7.58444
H          8.14892       -2.87806       -5.56679
H          6.75466       -3.21572       -4.54134
H          5.40300       -1.50998       -5.80701
H          6.78972       -1.17341       -6.84121
H          8.10811       -0.43990       -4.83596
H          6.72430       -0.77045       -3.79280
H          5.34188        0.90023       -5.07466
H          6.72270        1.28676       -6.08249
H          6.60884        1.63152       -3.02418
H          6.25086        2.92635       -4.16777
H          8.91636        1.41373       -4.01750
H          8.66666        2.89263       -1.96306
H         11.40744        5.13969       -2.89011
H         10.77188        3.92510       -0.50495
H          9.32943        4.92591       -0.84407
H         12.22229        5.96548       -0.79518
H         11.11021        6.06377        0.55958
H          9.56770        7.52869       -0.70952
H         10.50986        7.34048       -2.18463
H         12.47459        8.45340       -1.10857
H         11.55025        8.67116        0.37811
H          9.90181       10.12114       -0.81655
H         10.72345        9.81911       -2.35984
H         12.77681       10.94500       -1.53057
H         11.98677       11.24419        0.05291
H         10.29281       14.46804       -2.29226
H         11.30121       13.88279       -5.15930
H         10.37404       15.40612       -4.59477
H         10.58452        4.52224       -5.13036
H          9.22757        2.48305       -6.04667
H          7.09341        3.69221       -6.36435
H          8.50451        4.63487       -6.78497
H          8.28278        5.94156       -4.58814
H          6.82491        5.00678       -4.21499
H          4.38999        6.83695       -3.60361
H          3.85577        7.06462       -5.29489
H          4.59348        9.34046       -3.33280
H          2.93684        8.86235       -3.77403
H          4.01421        9.56098       -5.00471
H          6.68898        9.24221       -7.10075
H          6.53931        8.01705       -8.39657
H          9.16554        9.39957       -7.53045
H          8.23639        9.77486       -8.99953
H          9.01728        8.18659       -8.83297
