47

O          6.17122       -2.86900        5.12383
C          5.61089       -2.13477        4.03430
C          4.68214       -1.02440        4.52962
O          4.51382       -0.08645        3.44279
C          3.94202        1.12360        3.79679
O          4.88954        2.04266        4.42545
C          5.83113        2.59047        3.59326
S          7.40039        1.51379        3.47550
C          8.54931        2.61104        2.50805
C          9.95867        2.11348        2.66309
C         10.31779        0.90304        2.04617
C         11.59412        0.37073        2.20533
C         12.52660        1.05581        2.98906
C         12.18129        2.26742        3.58760
C         10.90181        2.82584        3.44173
C         10.60390        4.16716        4.06861
C          8.06348        1.59607        5.17548
C          8.11324        0.20512        5.81151
C          9.08805       -0.76886        5.12446
N          9.21224       -1.92779        6.00757
O          8.51910        0.42410        7.14561
H          5.53674       -3.53945        5.42074
H          5.09494       -2.79400        3.31878
H          6.45552       -1.67196        3.50348
H          5.14196       -0.53170        5.40101
H          3.69589       -1.41664        4.83220
H          3.14793        1.02843        4.55201
H          3.56674        1.58876        2.87249
H          6.17439        3.54858        4.00715
H          5.50998        2.69299        2.54220
H          8.40240        3.63973        2.85815
H          8.17566        2.51842        1.47893
H          9.58529        0.37314        1.43277
H         11.86254       -0.56600        1.71713
H         13.53033        0.65226        3.12540
H         12.92320        2.80472        4.18079
H         11.44599        4.49550        4.68811
H          9.71488        4.15982        4.71683
H         10.44135        4.94140        3.30310
H          7.41804        2.26478        5.76043
H          9.07456        2.01891        5.10330
H          7.09649       -0.23648        5.78948
H         10.07217       -0.28220        5.03552
H          8.74526       -1.00939        4.09974
H          8.42921       -2.57245        5.87795
H         10.07831       -2.43803        5.84846
H          8.90360       -0.44605        7.40944
