95

C          3.35904      -12.54302        5.09039
O          4.63804      -12.50194        4.47304
C          4.76904      -11.41524        3.57590
C          6.17213      -11.47629        2.99032
O          6.30974      -10.36732        2.10242
C          7.58866      -10.28585        1.51035
C          7.56196       -9.05630        0.61418
O          8.86623       -8.90853        0.03029
C          8.96176       -7.79061       -0.81497
C         10.43769       -7.73737       -1.22184
S         10.71486       -6.56935       -2.58737
C         10.58813       -4.93732       -1.79157
C         10.72596       -3.79627       -2.81349
O         10.39029       -2.63262       -2.11465
Si        10.17991       -1.10740       -2.85914
C          9.76368        0.02196       -1.43441
C         11.78401       -0.63964       -3.71249
C          8.77541       -1.24493       -4.09722
C         12.49504       -6.73853       -2.91165
C         12.79710       -8.01439       -3.70351
O         14.11911       -7.83953       -4.15933
C         14.65739       -8.97030       -4.86781
C         14.19829       -8.99680       -6.32546
O         14.78943      -10.15158       -6.89251
C         14.47166      -10.46293       -8.20081
C         13.64102       -9.69045       -9.01927
C         13.38659      -10.11066      -10.32623
C         13.94529      -11.28025      -10.86123
C         14.76745      -12.03617      -10.00960
C         15.03319      -11.64040       -8.70092
C         13.64549      -11.69093      -12.30985
C         14.04133      -10.57096      -13.32820
C         15.48638      -10.02220      -13.53305
C         16.47111      -11.08459      -14.06211
C         15.35464       -8.92187      -14.60983
C         16.08041       -9.37734      -12.26551
C         14.27692      -13.04852      -12.67208
C         12.11017      -11.87156      -12.44551
H          3.35534      -13.40980        5.76135
H          2.55275      -12.65990        4.34321
H          3.16504      -11.62795        5.67957
H          4.62274      -10.44779        4.09589
H          4.01844      -11.47521        2.76300
H          6.32026      -12.42970        2.44990
H          6.92284      -11.42198        3.80076
H          7.81777      -11.18969        0.91234
H          8.38305      -10.17736        2.27507
H          7.30739       -8.16146        1.21006
H          6.80058       -9.17615       -0.17715
H          8.66051       -6.86348       -0.28809
H          8.31447       -7.89527       -1.71032
H         10.73614       -8.71695       -1.62280
H         11.09612       -7.47381       -0.38276
H         11.32841       -4.86889       -0.98244
H          9.57686       -4.91045       -1.36162
H         10.05011       -3.98876       -3.67064
H         11.76007       -3.75297       -3.20705
H         10.57851        0.05321       -0.69870
H          8.84849       -0.30439       -0.92228
H          9.59845        1.04631       -1.79739
H         12.62142       -0.61276       -3.00146
H         11.69677        0.36070       -4.16064
H         12.04178       -1.33391       -4.52517
H          7.84810       -1.58169       -3.61334
H          9.00569       -1.93323       -4.92296
H          8.57589       -0.26176       -4.54743
H         13.04572       -6.68059       -1.96292
H         12.75320       -5.86741       -3.53101
H         12.07189       -8.12258       -4.53383
H         12.71509       -8.91454       -3.06394
H         14.38326       -9.91228       -4.36210
H         15.74770       -8.85828       -4.81740
H         14.52751       -8.07614       -6.84060
H         13.09484       -9.05290       -6.39531
H         13.19423       -8.76268       -8.66333
H         12.74326       -9.48334      -10.94481
H         15.22620      -12.95640      -10.36798
H         15.67724      -12.23660       -8.05394
H         13.40800       -9.69657      -13.10078
H         13.69447      -10.92533      -14.31456
H         16.04996      -11.64345      -14.91063
H         16.75870      -11.80714      -13.28801
H         17.39542      -10.59985      -14.40946
H         14.96544       -9.32971      -15.55469
H         16.33203       -8.46383      -14.82000
H         14.67197       -8.12303      -14.28322
H         16.26442      -10.11059      -11.47033
H         15.41533       -8.60285      -11.85634
H         17.04126       -8.89852      -12.50727
H         15.36217      -13.07805      -12.52570
H         14.08434      -13.27646      -13.72932
H         13.83407      -13.85847      -12.07449
H         11.56769      -10.93468      -12.25889
H         11.74639      -12.62110      -11.72859
H         11.85108      -12.21162      -13.45864
