89

F          0.66199        0.51350        0.99092
C          1.87130        0.34075        0.41440
C          2.47674        1.72174       -0.10037
C          2.29025        3.05667        0.73280
C          3.01474        3.21292        2.12911
C          4.58614        3.33785        2.17260
C          5.24534        3.93354        3.49343
C          4.96652        3.29703        4.91702
C          5.51070        1.85257        5.22135
F          6.83241        1.77977        5.05312
F          5.20070        1.53270        6.48188
F          4.92336        0.92912        4.40141
F          5.55983        4.11994        5.81049
F          3.62642        3.29102        5.14547
F          6.58302        3.87921        3.27053
F          4.86912        5.22932        3.57766
F          5.11697        2.09380        1.96314
F          4.99368        4.14231        1.16933
F          2.47037        4.29291        2.71514
F          2.66526        2.09079        2.84656
F          2.67006        4.06378       -0.07970
F          0.96388        3.17972        0.98860
F          3.80453        1.51726       -0.34330
F          1.85904        1.95973       -1.27560
P          2.83901       -0.88568        1.54725
C          4.60109       -1.06321        1.18803
C          4.90055       -1.49716       -0.26008
C          6.17619       -2.34775       -0.40819
C          7.58219       -1.62663       -0.55727
C          8.03669       -0.47240        0.43172
C          8.28542       -0.77456        1.97090
C          9.71598       -1.31774        2.40680
C         10.81705       -0.27170        2.87433
C         10.66685        0.60285        4.19915
C         10.17019       -0.09856        5.51339
F         10.89495       -1.19496        5.77941
F         10.28571        0.76414        6.53356
F          8.86665       -0.44709        5.40079
F         11.90751        1.08818        4.44687
F          9.84310        1.65387        3.95881
F         11.93953       -1.01526        3.02625
F         11.01065        0.61216        1.86166
F          9.52406       -2.20209        3.41505
F         10.25251       -1.99065        1.35987
F          8.02219        0.37251        2.64317
F          7.35573       -1.69257        2.36992
F          9.14347        0.08919       -0.08974
F          7.03378        0.46940        0.38577
F          8.52469       -2.59240       -0.57947
F          7.54868       -1.01298       -1.77527
F          6.24418       -3.26501        0.60637
F          6.04317       -3.05506       -1.56928
C          2.41259       -0.80018        3.30466
C          3.03371       -1.98739        4.06844
C          2.23445       -2.48189        5.28582
C          2.21462       -1.60231        6.59871
C          1.42200       -0.22685        6.67651
C         -0.12189       -0.25093        6.35992
C         -1.01087        0.97226        6.84622
C         -0.70708        2.44950        6.37009
C         -0.76677        2.85251        4.84101
C         -2.09299        2.61496        4.02674
F         -3.15891        3.08789        4.68179
F         -1.97677        3.25648        2.84838
F         -2.26882        1.30344        3.77380
F         -0.50660        4.18133        4.80768
F          0.23645        2.20845        4.17335
F         -1.59745        3.23206        7.02340
F          0.54557        2.77496        6.79306
F         -2.27954        0.67030        6.46465
F         -0.96515        0.99674        8.19794
F         -0.27979       -0.36768        5.00633
F         -0.66014       -1.34375        6.94736
F          1.61118        0.22486        7.93419
F          2.02915        0.64544        5.81296
F          1.77180       -2.38369        7.60494
F          3.51917       -1.26838        6.84595
F          0.95120       -2.77324        4.91336
F          2.82704       -3.65306        5.66499
F          1.71521       -0.42573       -0.70795
H          2.21580       -2.06231        1.06899
H          4.92660       -1.84458        1.89420
H          5.09976       -0.13226        1.47874
H          4.95812       -0.63565       -0.93484
H          4.10919       -2.15720       -0.64582
H          1.31227       -0.82183        3.32865
H          2.73854        0.15803        3.71122
H          4.05093       -1.74634        4.40110
H          3.09737       -2.89196        3.44268
