47

C          2.25393       -0.06927        4.33530
C          2.86170       -1.31469        4.98222
C          3.64685       -2.21928        4.02501
N          4.88545       -1.61956        3.49712
C          5.08063       -1.13603        2.25767
N          4.04876       -0.79656        1.47638
N          6.34425       -0.97075        1.78040
C          6.60512       -0.04015        0.67435
C          6.29861       -0.62276       -0.71396
O          5.22145       -1.14555       -0.97888
O          7.31368       -0.46353       -1.55125
C          7.12186       -0.91582       -2.95013
C          6.52951        0.18297       -3.81651
C          7.41582        1.42189       -3.95880
C          7.46743       -1.84813        2.17843
C          8.60534       -1.14021        2.92319
C          8.22424       -0.63644        4.31700
S          9.58344        0.34548        4.99888
O         10.71471       -0.51911        5.25065
O          9.68935        1.53533        4.19436
O          8.93917        0.77074        6.42516
H          1.68930        0.51559        5.07184
H          1.54540       -0.33555        3.53444
H          3.02259        0.60035        3.92157
H          2.06489       -1.93492        5.42014
H          3.51446       -1.02584        5.82131
H          3.02943       -2.51871        3.16552
H          3.93924       -3.14522        4.54121
H          5.68024       -1.58903        4.12737
H          3.12412       -0.67934        1.87406
H          4.18682       -0.86732        0.45189
H          7.65207        0.27789        0.72701
H          5.97634        0.85398        0.80126
H          6.48678       -1.80968       -2.92742
H          8.13913       -1.18150       -3.26396
H          5.53274        0.44998       -3.43277
H          6.35743       -0.27282       -4.80521
H          7.59243        1.91078       -2.99104
H          6.94536        2.15920       -4.62140
H          8.39441        1.16397       -4.38804
H          7.87337       -2.29371        1.25645
H          7.05815       -2.67816        2.76965
H          8.98213       -0.29818        2.32322
H          9.43911       -1.85236        3.00707
H          8.04280       -1.45747        5.02621
H          7.36328        0.04841        4.30058
H          9.48787        0.36728        7.12639
