58

C          2.26126        0.32149        2.24198
C          3.12217       -0.66767        1.99562
C          3.55606       -1.08177        0.60537
C          5.03531       -0.99921        0.42124
N          5.82775       -2.00755        0.13516
N          7.09382       -1.48450        0.10532
C          7.10037       -0.18278        0.36349
N          5.80371        0.15968        0.56648
C          5.38330        1.45548        0.89256
N          5.92420        2.25353        1.75105
N          5.19880        3.43964        1.66444
C          4.26420        3.23942        0.76347
O          4.32964        1.97058        0.21033
S          2.99277        4.25557        0.20245
C          3.26414        5.71711        1.29033
C          2.09658        6.69042        1.11781
C          0.74959        6.18333        1.64970
C         -0.36888        7.21741        1.50565
C          8.22788       -2.38334       -0.18268
C          9.42774       -1.64873       -0.75286
O          9.95805       -0.84377        0.28780
C         10.93276        0.13049       -0.10681
C         10.32123        1.34202       -0.80027
O          9.30105        1.85806        0.05398
C          8.80691        3.16103       -0.28062
C          8.02509        3.23092       -1.58286
O          6.91961        2.33338       -1.52151
C          6.10482        2.39721       -2.68862
H          1.95636        0.56320        3.25953
H          1.81764        0.91419        1.43909
H          3.54434       -1.24914        2.82018
H          3.05352       -0.46119       -0.15210
H          3.28478       -2.12939        0.40707
H          7.95645        0.50733        0.38538
H          4.22048        6.16824        0.99876
H          3.34693        5.34778        2.32121
H          2.00304        6.98222        0.05807
H          2.38005        7.61069        1.65480
H          0.86599        5.90224        2.70981
H          0.46378        5.25872        1.12109
H         -0.13811        8.13804        2.06103
H         -1.32050        6.82778        1.89009
H         -0.52532        7.49458        0.45293
H          7.84572       -3.13043       -0.88871
H          8.49849       -2.88991        0.75510
H          9.12477       -1.05202       -1.63389
H         10.16315       -2.40055       -1.09523
H         11.70597       -0.32064       -0.75433
H         11.40404        0.44251        0.83423
H          9.91033        1.07824       -1.79290
H         11.11667        2.09275       -0.96216
H          9.64243        3.88254       -0.32855
H          8.15822        3.43661        0.56166
H          8.66002        2.98870       -2.45744
H          7.67585        4.27351       -1.71566
H          5.29512        1.66889       -2.55941
H          6.67921        2.14211       -3.59667
H          5.66474        3.40179       -2.81682
