86

S          2.18259       -1.15538       -1.19628
C          3.97402       -1.42351       -1.56005
C          4.45654       -0.28390       -2.43577
O          4.65491       -0.35500       -3.62265
O          4.58752        0.86697       -1.69404
C          4.85174        2.08798       -2.44904
C          4.16939        3.23104       -1.70463
C          2.63089        3.19745       -1.57618
C          1.96390        2.83259       -2.91716
C          0.53289        3.29619       -3.21425
O          0.28048        2.82611       -4.52782
C         -0.87202        3.37353       -5.13134
C         -0.73475        3.27064       -6.65296
C          0.16986        4.33376       -7.37751
C          1.70913        4.45824       -7.07372
C          2.60600        3.22413       -7.39692
F          3.90598        3.63665       -7.35390
F          2.44420        2.26007       -6.44712
F          2.14985        5.47967       -7.85804
F          1.89050        4.83349       -5.76892
F          0.06857        4.09909       -8.71673
F         -0.36901        5.55869       -7.10728
F         -0.31015        2.02581       -7.01944
F         -1.98653        3.45637       -7.17875
C          2.17766        4.54965       -0.98610
O          0.81510        4.56223       -0.60820
C          0.52967        3.66985        0.47517
C          0.87528        2.23853        0.06427
N          2.27297        2.15156       -0.49609
C         -0.95222        3.79449        0.81481
C         -1.37504        5.19286        1.28181
C         -2.89712        5.32139        1.40681
C         -3.36587        6.71379        1.84306
C         -4.89389        6.83343        1.87229
C         -5.36668        8.21561        2.29344
O         -6.81227        8.20370        2.25664
C         -7.41537        9.39161        2.57032
O         -6.79819       10.39747        2.86463
C         -8.89086        9.25090        2.49178
C         -9.69544       10.28616        2.75553
C          6.36038        2.30699       -2.56688
O          6.51803        3.41226       -3.47262
C          7.67054        4.15229       -3.33087
O          8.46443        3.98611       -2.43288
C          7.80125        5.14681       -4.45733
S          8.61708        4.34709       -5.89127
H          2.21253       -1.56727        0.09237
H          4.09379       -2.36647       -2.10063
H          4.52433       -1.44543       -0.61367
H          4.44399        1.95503       -3.46115
H          4.42568        4.15605       -2.24349
H          4.62347        3.33127       -0.70279
H          2.00814        1.74282       -3.07511
H          2.58661        3.26427       -3.71359
H          0.45154        4.39635       -3.17336
H         -0.21602        2.89000       -2.51047
H         -1.01703        4.43473       -4.86390
H         -1.78558        2.81479       -4.85825
H          2.38713        2.80604       -8.39140
H          2.30723        5.33338       -1.74453
H          2.82194        4.80976       -0.12095
H          1.15169        3.96247        1.34884
H          0.19426        1.87433       -0.71415
H          0.82826        1.54899        0.91767
H          2.42046        1.17344       -0.85118
H          2.94985        2.26842        0.27066
H         -1.19906        3.04677        1.58681
H         -1.52715        3.51661       -0.08548
H         -1.00260        5.94117        0.56543
H         -0.89593        5.42009        2.24917
H         -3.27694        4.56796        2.11854
H         -3.35710        5.07600        0.43343
H         -2.94949        7.47035        1.15561
H         -2.95262        6.94690        2.83925
H         -5.31686        6.08468        2.56149
H         -5.30421        6.60703        0.87470
H         -4.99678        9.00310        1.61802
H         -5.03508        8.47463        3.31145
H         -9.27799        8.27053        2.21075
H         -9.27653       11.25436        3.03450
H        -10.77948       10.19288        2.70024
H          6.84121        1.41647       -2.99749
H          6.82988        2.53480       -1.59843
H          8.37454        6.01687       -4.12113
H          6.81777        5.46253       -4.82552
H          9.82940        4.21402       -5.30306
