65

C          0.72623        2.40160        0.46247
C          2.09175        2.11545       -0.16701
C          3.25101        2.36669        0.80770
C          4.59500        2.05540        0.18088
O          5.63285        2.45423        1.14655
C          6.89288        2.33584        0.77881
O          7.23358        1.83677       -0.30403
C          7.83399        2.84136        1.86018
C          9.24192        3.36449        1.47683
C         10.15118        2.33920        0.79360
N          9.80457        2.20258       -0.66784
C          9.89704        3.49347       -1.42653
C          8.96768        4.54208       -0.78860
C          9.25414        4.71558        0.71570
C          8.90431        5.74348       -1.74681
O          9.12249        5.61280       -2.92941
C          8.46261        7.17965       -1.28871
C          7.09810        7.67634       -1.91105
C          5.85066        6.73546       -1.73980
C          5.50334        6.35471       -0.26677
O          6.03879        5.41502        0.27112
O          4.59683        7.12434        0.33583
F          4.78528        7.39054       -2.30127
F          6.06274        5.58833       -2.43747
F          6.78650        8.85929       -1.30628
F          7.26654        7.89321       -3.23142
F          8.35672        7.30860        0.06755
F          9.42718        8.04123       -1.70738
C         11.40415        3.81159       -1.54126
O         12.21303        2.90590       -1.63807
O         11.65255        5.11161       -1.55072
C         13.03865        5.54319       -1.82415
C         12.99610        7.02511       -2.13577
C         14.39855        7.58984       -2.40482
C         14.37391        9.08406       -2.73623
H         -0.08523        2.23178       -0.25696
H          0.65421        3.44353        0.80686
H          0.54251        1.75158        1.32977
H          2.22543        2.74436       -1.06319
H          2.12359        1.07154       -0.52052
H          3.12040        1.75502        1.71453
H          3.24496        3.41989        1.13190
H          4.77025        2.62826       -0.74151
H          4.72568        0.98713       -0.04326
H          7.95201        1.99847        2.56333
H          7.29890        3.62012        2.41889
H          9.72229        3.56220        2.44769
H         10.05504        1.33845        1.23485
H         11.20485        2.64031        0.85395
H          8.78579        1.86754       -0.69052
H         10.45855        1.54357       -1.11428
H          9.55671        3.28703       -2.45246
H          7.93698        4.15039       -0.88205
H          8.50718        5.37128        1.16964
H         10.23452        5.19472        0.85620
H          4.24658        7.79765       -0.28167
H         13.41690        4.93889       -2.66003
H         13.63661        5.31333       -0.93007
H         12.53256        7.56165       -1.29193
H         12.34777        7.19064       -3.01080
H         14.86379        7.03503       -3.23610
H         15.03945        7.41595       -1.52455
H         13.77416        9.28390       -3.63586
H         15.38702        9.46359       -2.92124
H         13.94394        9.67049       -1.91144
