42

N          0.57131       -0.26797        0.43170
N          1.92853       -0.45937       -0.10213
C          2.72746       -1.39097        0.85284
C          2.67472       -2.87219        0.41228
N          3.34165       -3.02380       -0.93050
C          4.76843       -2.55530       -1.01238
C          4.82216       -1.09391       -0.57805
C          4.22310       -0.90208        0.83111
C          5.12388       -1.62846        1.86741
C          5.18922       -0.99738        3.26191
C          5.80418       -1.82850        4.38851
C          4.83819       -2.85456        5.08626
Br         4.25811       -4.38753        3.96505
F          5.41320       -3.36440        6.18171
F          3.71745       -2.19222        5.46830
Br         7.46773       -2.73625        3.86737
F          6.11916       -0.95167        5.40849
N          2.26032       -1.35792        2.24885
N          2.03225        0.03313        2.70354
N          1.11485       -2.08219        2.60099
N          1.71956       -1.04875       -1.41222
H          0.17783        0.47101       -0.16295
H          0.74671        0.20886        1.33961
H          1.63854       -3.21083        0.28796
H          3.16621       -3.51861        1.14923
H          2.73073       -2.33314       -1.51473
H          3.24827       -3.98848       -1.26394
H          5.08811       -2.68859       -2.05377
H          5.38350       -3.20613       -0.37577
H          4.30329       -0.46151       -1.31148
H          5.87151       -0.77010       -0.57707
H          4.20542        0.18148        1.02340
H          6.14920       -1.65765        1.46995
H          4.81681       -2.67615        1.96989
H          4.18780       -0.73851        3.62560
H          5.78224       -0.07137        3.23156
H          2.94925        0.48150        2.80411
H          1.67679       -0.10459        3.65456
H          1.35464       -3.00191        2.95950
H          0.35505       -2.06144        1.91739
H          1.75914       -0.28606       -2.09318
H          0.75739       -1.42536       -1.43213
