62

C          1.11310        0.22047       -0.08078
C          2.63421        0.11150       -0.22253
C          3.06246       -1.24039       -0.76717
O          4.50008       -1.25530       -0.87905
C          4.99818       -2.45616       -1.39376
C          6.49930       -2.36651       -1.45335
N          7.17039       -3.45544       -1.95927
C          8.50350       -3.54759       -2.05925
C          9.33025       -2.49282       -1.63931
C          8.66421       -1.30945       -1.14804
C          7.24811       -1.28988       -1.05351
C          9.44830       -0.19306       -0.78397
C         10.80892       -0.23663       -0.97418
C         11.47172       -1.39217       -1.48328
C         10.76317       -2.57571       -1.74006
C         11.41811       -3.92203       -2.02459
C         11.70727       -4.16248       -3.51857
O         10.44665       -4.30703       -4.19672
C         12.66812       -4.23371       -1.15163
C         12.77651       -5.72342       -0.81450
C         12.90025       -1.25697       -1.75069
N         13.57588       -1.64567       -2.79755
N         14.88522       -1.24900       -2.61715
C         14.92294       -0.62215       -1.46141
O         13.69210       -0.57170       -0.85148
S         16.32824        0.08616       -0.75190
C         15.76417        0.45988        0.95288
C         16.98163        0.92523        1.75399
C         16.62005        1.25895        3.20804
C         17.83615        1.70419        4.02420
H          0.83132        1.20339        0.31651
H          0.71386       -0.54003        0.60555
H          0.60654        0.09770       -1.04871
H          3.11924        0.26811        0.75322
H          3.01039        0.89731       -0.89560
H          2.61830       -1.42505       -1.76404
H          2.74099       -2.05997       -0.09632
H          4.60120       -2.66129       -2.41324
H          4.71067       -3.32433       -0.75928
H          6.61792       -4.24293       -2.29928
H          8.88722       -4.44543       -2.53744
H          6.72567       -0.41404       -0.67209
H          8.96762        0.70247       -0.39012
H         11.41521        0.63980       -0.74321
H         10.67994       -4.68767       -1.73712
H         12.29662       -5.09053       -3.61158
H         12.29409       -3.32844       -3.92840
H         10.60981       -4.29085       -5.15190
H         12.60959       -3.65463       -0.21737
H         13.58059       -3.90469       -1.66549
H         11.91221       -6.06823       -0.22797
H         13.67985       -5.92092       -0.22280
H         12.83910       -6.34643       -1.71813
H         15.33018       -0.45358        1.38202
H         14.99000        1.23776        0.90943
H         17.42696        1.81156        1.27235
H         17.75378        0.13884        1.73720
H         16.15936        0.37492        3.68000
H         15.85197        2.04989        3.22134
H         18.60517        0.91865        4.05498
H         17.55571        1.93603        5.05996
H         18.29792        2.60469        3.59451
