129

C         10.89618        8.96088       -6.08354
C         10.96173        7.72741       -5.17996
C         11.46335        6.47683       -5.90780
C         11.52614        5.22538       -5.02680
C         12.03764        3.98992       -5.77295
C         12.09818        2.71843       -4.92049
C         12.61756        1.50687       -5.69986
C         12.71993        0.21835       -4.87805
C         13.24363       -0.96336       -5.69988
C         13.39398       -2.26753       -4.91131
C         13.97178       -3.40618       -5.75769
C         14.12936       -4.72864       -5.00241
C         14.76182       -5.83354       -5.85503
C         14.89506       -7.16827       -5.11259
C         15.51557       -8.30498       -5.94002
C         17.00698       -8.08023       -6.22628
N         17.61659       -9.19347       -6.98971
C         17.25674       -9.31460       -8.42276
C         18.52554       -9.14891       -9.27651
O         18.16531       -9.30519      -10.62670
C         19.28548       -9.15023      -11.51513
C         18.83024       -9.34476      -12.95040
C         20.00306       -9.23765      -13.93132
C         19.59600       -9.40554      -15.39835
C         20.78668       -9.31256      -16.35682
C         20.41279       -9.46803      -17.83358
C         21.61875       -9.36782      -18.77232
C         21.26369       -9.50785      -20.25571
C         22.48120       -9.39614      -21.17603
C         16.51072      -10.63334       -8.65351
C         17.37859      -11.80881       -8.21916
N         18.10932      -11.48089       -6.98630
C         18.14647      -10.27280       -6.38641
N         18.72908      -10.18622       -5.16350
C         19.63282       -9.10365       -4.72228
C         21.02109       -9.63626       -4.35297
C         21.79380      -10.27020       -5.51478
C         23.23067      -10.65685       -5.14670
C         23.98165      -11.35411       -6.28546
C         25.43792      -11.68918       -5.94747
C         26.17175      -12.41972       -7.07665
C         27.63874      -12.72722       -6.75990
C         28.35389      -13.49787       -7.87387
C         29.82245      -13.80717       -7.56576
C         30.51304      -14.60554       -8.67376
H         10.53537        9.84380       -5.53822
H         10.21785        8.79437       -6.93372
H         11.88678        9.20528       -6.49538
H          9.96303        7.52525       -4.75741
H         11.61903        7.93416       -4.31852
H         12.46586        6.67865       -6.32538
H         10.81054        6.27691       -6.77604
H         10.52265        5.01660       -4.61613
H         12.17553        5.42252       -4.15570
H         13.04383        4.20191       -6.17612
H         11.39436        3.80547       -6.65151
H         11.09359        2.49559       -4.52008
H         12.74351        2.89515       -4.04202
H         13.61188        1.74631       -6.11690
H         11.96159        1.32919       -6.57032
H         11.73045       -0.03281       -4.45793
H         13.38472        0.38662       -4.01265
H         14.22141       -0.69179       -6.13595
H         12.56918       -1.13498       -6.55725
H         12.41300       -2.57000       -4.50556
H         14.04563       -2.09532       -4.03688
H         14.95500       -3.09509       -6.15351
H         13.32790       -3.56683       -6.64006
H         13.14320       -5.06635       -4.63975
H         14.74592       -4.56658       -4.10104
H         15.74974       -5.48389       -6.20245
H         14.15480       -5.98598       -6.76493
H         13.89593       -7.49360       -4.78290
H         15.48307       -7.02480       -4.18915
H         14.96093       -8.41101       -6.88714
H         15.40718       -9.25826       -5.39759
H         17.54309       -7.95414       -5.27969
H         17.17109       -7.16632       -6.81387
H         16.58105       -8.47892       -8.64661
H         19.29402       -9.89486       -8.98011
H         18.96073       -8.14747       -9.08357
H         20.06498       -9.89172      -11.24904
H         19.72387       -8.14287      -11.37689
H         18.06315       -8.59175      -13.19107
H         18.34923      -10.33179      -13.04481
H         20.76212       -9.99828      -13.67798
H         20.49871       -8.25932      -13.80510
H         18.84938       -8.63658      -15.66159
H         19.09184      -10.37867      -15.53027
H         21.52977      -10.08368      -16.08734
H         21.29273       -8.34180      -16.21204
H         19.67123       -8.69700      -18.10668
H         19.91039      -10.43970      -17.98449
H         22.35730      -10.14284      -18.50070
H         22.12484       -8.39943      -18.61100
H         20.52364       -8.73569      -20.52558
H         20.76371      -10.47750      -20.41910
H         22.98091       -8.42312      -21.05686
H         22.20032       -9.49874      -22.23307
H         23.22278      -10.17713      -20.95065
H         16.25759      -10.73902       -9.71507
H         15.57352      -10.61236       -8.08035
H         18.11708      -12.05360       -8.99750
H         16.76926      -12.70681       -8.04348
H         18.77702      -12.16886       -6.65222
H         18.85677      -11.07347       -4.68356
H         19.18635       -8.58226       -3.86125
H         19.71557       -8.38396       -5.54814
H         20.92957      -10.35334       -3.51826
H         21.59092       -8.78431       -3.94862
H         21.81298       -9.56803       -6.36709
H         21.26505      -11.17171       -5.87468
H         23.21842      -11.31365       -4.25970
H         23.78033       -9.74908       -4.84450
H         23.95716      -10.71367       -7.18503
H         23.44851      -12.28269       -6.55817
H         25.46830      -12.30776       -5.03335
H         25.97724      -10.75783       -5.70161
H         26.11861      -11.81382       -7.99859
H         25.64335      -13.36288       -7.30278
H         27.69569      -13.30740       -5.82209
H         28.17543      -11.78232       -6.56473
H         28.29390      -12.92216       -8.81472
H         27.81684      -14.44423       -8.06389
H         29.88335      -14.36500       -6.61599
H         30.36474      -12.86158       -7.39710
H         30.01317      -15.57198       -8.83738
H         31.56337      -14.81246       -8.42729
H         30.49645      -14.05914       -9.62865
