73

C         15.18290       -2.35943      -10.04848
C         14.01770       -2.00301       -9.12175
C         13.71895       -0.50002       -9.06960
C         12.55357       -0.13792       -8.14315
C         12.25518        1.36400       -8.08346
C         11.08256        1.71693       -7.16193
C         10.80473        3.22318       -7.08205
C          9.56102        3.60819       -6.26535
C          9.59317        3.16470       -4.80224
O         10.79431        3.57552       -4.10138
C         10.82457        4.94423       -3.77863
N         12.17881        5.25716       -3.31247
C         12.76533        4.47884       -2.37482
N         14.09687        4.17919       -2.30642
C         14.27969        3.34419       -1.23002
N         13.14952        3.10384       -0.63248
N         12.20990        3.82660       -1.32485
C         10.79861        3.83322       -0.88114
C         10.58423        3.22729        0.50322
C         11.23456        3.98982        1.68045
C         11.08320        5.49135        1.59175
C          9.82545        6.10538        1.71359
C          9.69190        7.49026        1.59860
C         10.81666        8.28872        1.36858
C         12.07388        7.69251        1.25610
C         12.20136        6.30453        1.35741
C         13.00929        6.07890       -4.21258
C         12.50804        7.52431       -4.38327
C         12.40935        8.39284       -3.12680
C         13.70182        8.52464       -2.25271
Br        15.28304        9.02909       -3.29499
F         13.52679        9.40540       -1.25900
F         13.95566        7.30897       -1.66973
Br        11.83211       10.18887       -3.66736
F         11.44604        7.87726       -2.27935
H         15.36843       -3.44196      -10.06282
H         16.11395       -1.86759       -9.72917
H         14.98174       -2.04419      -11.08304
H         14.23285       -2.36532       -8.10193
H         13.11078       -2.54049       -9.44639
H         13.50122       -0.13679      -10.08936
H         14.62664        0.04041       -8.74595
H         12.76859       -0.50774       -7.12461
H         11.64693       -0.67535       -8.47178
H         12.04432        1.73672       -9.10077
H         13.15972        1.90270       -7.74748
H         11.29042        1.31662       -6.15482
H         10.17401        1.19762       -7.51393
H         10.68176        3.62386       -8.10080
H         11.69211        3.73128       -6.66499
H          8.66195        3.15104       -6.71119
H          9.39299        4.69604       -6.33210
H          9.60393        2.07066       -4.72097
H          8.70437        3.53297       -4.25895
H         10.07122        5.20053       -3.01380
H         10.64209        5.58635       -4.65463
H         14.80829        4.47508       -2.96558
H         15.24327        2.95023       -0.92586
H         10.22031        3.27944       -1.63438
H         10.48171        4.88593       -0.87572
H         10.90642        2.17700        0.51396
H          9.49052        3.21658        0.62880
H         12.30124        3.73621        1.73556
H         10.77807        3.61610        2.60957
H          8.94202        5.49512        1.91685
H          8.70849        7.95001        1.70474
H         10.71434        9.37173        1.29368
H         12.95935        8.30867        1.10115
H         13.18941        5.84345        1.28031
H         13.03982        5.60873       -5.20921
H         14.03615        6.10925       -3.83299
H         11.50708        7.53906       -4.83618
H         13.17613        8.01837       -5.10017
