62

C          0.64217        0.65500        0.24066
C          2.16854        0.72108        0.32383
C          2.81829        1.26936       -0.95048
C          4.34829        1.30069       -0.89517
C          4.99617        1.85407       -2.16792
C          6.52694        1.81235       -2.14196
C          7.17397        2.36532       -3.41525
C          8.69838        2.21595       -3.43954
C          9.34073        2.77060       -4.71439
C         10.84350        2.48396       -4.81642
C         11.46213        3.03906       -6.10511
C         12.95722        2.71895       -6.30104
C         13.23900        1.21927       -6.45916
N         12.64568        0.74682       -7.78333
C         13.17593        1.50244       -8.99392
C         13.07053        3.01389       -8.71882
N         13.54256        3.46073       -7.43041
C         14.95752        3.83597       -7.31862
C         15.17791        5.15942       -6.51683
N         14.77025        4.91595       -5.11533
N         16.56463        5.54881       -6.76000
N         14.36524        6.27206       -6.97515
Br        14.97561        0.83855       -9.34702
H          0.20365        0.26697        1.17018
H          0.31704       -0.00120       -0.58045
H          0.20984        1.65019        0.05885
H          2.57104       -0.28479        0.53162
H          2.46598        1.34908        1.18059
H          2.43636        2.28705       -1.14492
H          2.49889        0.65694       -1.81250
H          4.72502        0.27922       -0.71001
H          4.67197        1.90409       -0.02897
H          4.65861        2.89273       -2.32923
H          4.63441        1.27930       -3.03891
H          6.85658        0.76926       -1.99025
H          6.89688        2.37713       -1.26870
H          6.90538        3.42953       -3.53194
H          6.74821        1.84710       -4.29295
H          8.95573        1.14654       -3.33689
H          9.13532        2.71909       -2.56002
H          9.16982        3.85885       -4.77225
H          8.83079        2.33689       -5.59396
H         10.99067        1.39082       -4.74572
H         11.36929        2.91627       -3.94903
H         11.37391        4.13549       -6.11221
H         10.85181        2.70176       -6.96729
H         13.48415        3.07287       -5.40158
H         12.77929        0.60107       -5.67829
H         14.31280        1.00244       -6.51187
H         11.62321        0.88829       -7.74249
H         12.81786       -0.25893       -7.91554
H         12.56835        1.19486       -9.85397
H         11.99582        3.25795       -8.82991
H         13.59215        3.54395       -9.52513
H         15.35551        4.00671       -8.32680
H         15.57261        3.02872       -6.86873
H         15.50158        4.39709       -4.62484
H         14.68144        5.82232       -4.64985
H         17.21869        4.85327       -6.39893
H         16.75924        6.43352       -6.28704
H         13.38757        5.98812       -7.04708
H         14.68613        6.57831       -7.89401
