59

C          1.50364       -0.82121        0.29407
O          2.87988       -0.49917        0.15841
C          3.28707        0.52274        1.05014
C          4.76161        0.79572        0.78779
O          5.17235        1.81825        1.69116
C          6.51637        2.21697        1.50572
C          6.77558        3.34951        2.48931
O          8.12215        3.78801        2.30830
C          8.46152        4.87790        3.13876
C          9.86940        5.34282        2.73164
C         10.44708        6.34469        3.69344
C         10.35150        7.69827        3.43698
C         10.84178        8.68556        4.32539
C         11.45595        8.34569        5.51275
C         11.58967        6.94497        5.82696
C         11.08167        5.93616        4.91926
C         11.22708        4.57665        5.25069
C         11.84232        4.16983        6.43859
N         12.31498        5.17746        7.25855
C         12.20688        6.49324        6.99100
N         12.00512        2.88502        6.84436
C         11.52666        1.79771        5.99000
C         12.74878        2.57374        8.06265
C         11.96218        9.41105        6.44292
O         12.50414        9.19641        7.51872
O         11.74638       10.64032        5.95102
C         12.19742       11.75869        6.78473
C         11.89945       13.03494        6.03010
H          1.28555       -1.61094       -0.43435
H          0.86069        0.05314        0.08277
H          1.27188       -1.19151        1.30993
H          3.14276        0.21383        2.10460
H          2.70097        1.44922        0.88966
H          4.90504        1.11971       -0.26014
H          5.35267       -0.12684        0.94270
H          6.69113        2.57125        0.47128
H          7.21535        1.37806        1.69523
H          6.61470        2.99651        3.52592
H          6.06881        4.17832        2.29953
H          8.43416        4.58158        4.20858
H          7.74120        5.71092        3.01885
H          9.81663        5.78412        1.72759
H         10.51261        4.45450        2.64231
H          9.87792        8.02473        2.50930
H         10.73247        9.73716        4.06763
H         10.85979        3.81567        4.56979
H         12.77553        4.91527        8.12745
H         12.61983        7.18898        7.72013
H         12.11725        1.71554        5.06398
H         10.46809        1.93894        5.73105
H         11.61443        0.85742        6.54116
H         12.26326        2.99509        8.95898
H         13.79514        2.92044        8.01007
H         12.77195        1.48849        8.19211
H         13.26979       11.62346        6.98280
H         11.66482       11.70034        7.74456
H         12.44242       13.07142        5.07694
H         12.21708       13.89502        6.63465
H         10.82537       13.14002        5.82981
