72

N          5.87618        1.18659       -0.13102
C          5.31487        0.01481       -0.82141
C          5.12508       -1.13590        0.17735
C          4.08770       -0.73342        1.23589
N          4.22405       -1.49889        2.47976
N          3.66526       -2.67385        2.65651
N          4.13650       -3.19980        3.76846
C          5.01846       -2.33279        4.30290
N          5.10103       -1.25025        3.48997
C          5.92230       -0.02992        3.62508
C          5.16027        1.28877        3.82369
C          4.07260        1.32069        4.89894
S          4.69257        1.04098        6.58162
C          3.60547       -0.27582        7.19771
S          2.52908       -1.09962        6.22075
N          3.78936       -0.52407        8.51125
C          4.62650        0.30393        9.40060
C          6.04399       -0.23324        9.61149
C          3.07716       -1.63832        9.17050
C          1.73030       -1.22570        9.76337
C          5.79670       -2.55754        5.54858
C          5.25092       -3.72427        6.38561
C          5.90924       -3.79318        7.76503
C          5.27752       -4.85360        8.67202
C          5.84548       -4.86120       10.09456
C          5.19665       -5.90866       11.00493
C          5.74035       -5.90365       12.43696
C          5.10064       -6.96358       13.34078
C          5.62902       -6.93710       14.77735
H          5.64448        2.04647       -0.62687
H          6.89550        1.13641       -0.11354
H          5.93192       -0.34484       -1.66174
H          4.34127        0.29698       -1.24976
H          6.09161       -1.35210        0.66030
H          4.81063       -2.05720       -0.33189
H          3.06112       -0.92412        0.90185
H          4.19936        0.33021        1.47486
H          6.55947        0.04386        2.73244
H          6.56452       -0.23660        4.48933
H          4.71426        1.61557        2.87287
H          5.94335        2.03345        4.03662
H          3.29508        0.54703        4.74886
H          3.58536        2.30398        4.88687
H          4.09667        0.36116       10.36237
H          4.65202        1.32578        8.99896
H          6.03818       -1.23639       10.05796
H          6.58763        0.43203       10.29539
H          6.60319       -0.27782        8.66770
H          3.74933       -2.02362        9.95136
H          2.93880       -2.42682        8.42124
H          1.83906       -0.42916       10.51189
H          1.27037       -2.09017       10.26057
H          1.04804       -0.87964        8.97725
H          5.78463       -1.62577        6.13792
H          6.85216       -2.73545        5.27381
H          5.38989       -4.67071        5.84222
H          4.16537       -3.58827        6.49960
H          5.82594       -2.80635        8.24895
H          6.99072       -3.98846        7.66182
H          5.40880       -5.85086        8.21884
H          4.18693       -4.68793        8.71672
H          5.71656       -3.85956       10.54472
H          6.93525       -5.03256       10.05575
H          5.33985       -6.91021       10.56325
H          4.10459       -5.74551       11.02806
H          5.58690       -4.90448       12.88301
H          6.83362       -6.05715       12.41416
H          5.27226       -7.96137       12.90337
H          4.00660       -6.82260       13.34781
H          6.71499       -7.11029       14.80832
H          5.15250       -7.71076       15.39472
H          5.43581       -5.96579       15.25658
