69

C          3.72935       -3.28048        3.61985
C          4.73558       -3.02355        2.49426
C          4.05349       -2.71645        1.17025
O          5.07347       -2.46273        0.18491
C          4.56589       -2.04010       -1.05927
N          5.67749       -1.46408       -1.79563
C          6.36710       -2.08103       -2.77392
N          5.74271       -2.83445       -3.69833
C          4.40861       -2.61123       -4.26862
C          4.54390       -2.39955       -5.77710
O          5.36649       -3.44764       -6.26059
C          5.55236       -3.42486       -7.68195
C          6.44119       -4.57894       -8.09029
O          5.73174       -5.79009       -7.92850
C          6.49963       -6.93570       -8.29062
C          5.59851       -8.15572       -8.16063
O          6.39267       -9.29479       -8.43722
C          5.64457      -10.50239       -8.40962
N          7.70094       -1.92066       -2.88724
C          8.75454       -1.74321       -1.83454
C         10.08481       -2.23912       -2.46400
C         10.36743       -3.75404       -2.56594
C          9.36467       -4.54108       -3.42561
C         11.79579       -3.94606       -3.09954
C          8.94165       -0.23787       -1.55178
O          7.71995        0.31107       -1.03688
C          8.41471       -2.50552       -0.54544
H          4.24835       -3.48511        4.56478
H          3.08792       -4.14628        3.40171
H          3.07542       -2.41168        3.78372
H          5.39099       -3.89831        2.36098
H          5.38842       -2.17576        2.75508
H          3.40227       -1.82510        1.25973
H          3.42156       -3.56466        0.84537
H          3.78339       -1.27069       -0.92005
H          4.14028       -2.88071       -1.63415
H          6.20654       -0.72102       -1.31817
H          6.32992       -3.41547       -4.29735
H          3.94951       -1.73189       -3.80066
H          3.77665       -3.48895       -4.06908
H          4.99934       -1.41201       -5.99258
H          3.54061       -2.42270       -6.24120
H          6.02224       -2.47064       -7.98675
H          4.57354       -3.51019       -8.18669
H          7.36717       -4.57688       -7.47761
H          6.74459       -4.43254       -9.14654
H          7.37734       -7.04587       -7.62516
H          6.87111       -6.84712       -9.32887
H          4.75143       -8.07753       -8.86994
H          5.17428       -8.20099       -7.13765
H          6.34249      -11.31612       -8.63836
H          4.83693      -10.49546       -9.16395
H          5.19680      -10.67916       -7.41410
H          8.07264       -2.12782       -3.80972
H         10.89767       -1.79411       -1.86914
H         10.18153       -1.78548       -3.46887
H         10.33755       -4.17504       -1.54725
H          9.29622       -4.12747       -4.44667
H          8.35614       -4.56623       -2.98988
H          9.69160       -5.58423       -3.53041
H         11.89513       -3.55296       -4.12334
H         12.06366       -5.01051       -3.12693
H         12.53539       -3.43082       -2.47093
H          9.23226        0.27659       -2.48343
H          9.75301       -0.11996       -0.81523
H          7.84756        1.25203       -0.84397
H          8.15701       -3.55062       -0.75418
H          7.58437       -2.05887        0.00926
H          9.29594       -2.49770        0.10977
