96

C          0.77007       -1.20208        0.17396
C          2.29428       -1.22988        0.31240
C          3.00530       -1.86153       -0.88997
C          4.53236       -1.86753       -0.76563
C          5.24859       -2.48453       -1.97145
C          6.77671       -2.44440       -1.86242
C          7.49523       -3.02612       -3.08421
C          9.02270       -2.92979       -3.00194
C          9.73239       -3.46362       -4.25018
C         11.25716       -3.30690       -4.20506
C         11.93619       -3.80245       -5.48858
C         13.43721       -3.58111       -5.48090
O         13.96515       -4.06680       -6.74370
C         15.33763       -3.92874       -6.87605
N         15.67715       -4.61122       -8.17607
C         15.08798       -3.86496       -9.35205
O         15.24548       -4.69178      -10.45154
C         14.62177       -4.15766      -11.65204
C         14.95381       -5.06635      -12.82063
C         14.36428       -4.54128      -14.13762
C         14.77594       -5.37501      -15.35698
C         14.22326       -4.82663      -16.67697
C         14.70140       -5.59645      -17.91312
C         14.15846       -5.03011      -19.22946
C         14.67407       -5.75661      -20.47612
C         14.12942       -5.18180      -21.78886
C         14.66136       -5.89570      -23.03402
C         17.14856       -4.91136       -8.34886
C         17.55652       -6.04366       -7.40435
O         16.48100       -6.96274       -7.40586
C         16.74773       -8.18292       -6.68988
C         15.49249       -9.02466       -6.64431
O         15.17654       -9.46315       -7.94947
C         14.06845      -10.35852       -7.97238
H          0.29350       -0.74392        1.05148
H          0.35925       -2.21701        0.06532
H          0.45999       -0.62558       -0.71056
H          2.57192       -1.78038        1.22737
H          2.66965       -0.20220        0.45472
H          2.71694       -1.31951       -1.80828
H          2.64319       -2.89603       -1.02598
H          4.82277       -2.41220        0.15012
H          4.88815       -0.83160       -0.62419
H          4.93713       -1.95433       -2.88898
H          4.91656       -3.52965       -2.10086
H          7.09481       -2.98837       -0.95565
H          7.10134       -1.39919       -1.71534
H          7.14905       -2.50009       -3.99158
H          7.19971       -4.08162       -3.21724
H          9.37991       -3.47670       -2.11181
H          9.31045       -1.87548       -2.84417
H          9.34350       -2.93803       -5.13992
H          9.47741       -4.52818       -4.39284
H         11.65961       -3.85275       -3.33448
H         11.50662       -2.24412       -4.04220
H         11.50931       -3.28013       -6.35993
H         11.73546       -4.87624       -5.63235
H         13.92574       -4.13099       -4.65549
H         13.68392       -2.50911       -5.37657
H         15.89997       -4.44068       -6.07566
H         15.67629       -2.87685       -6.95070
H         15.22899       -5.54993       -8.13139
H         15.64236       -2.90895       -9.43793
H         14.03310       -3.66613       -9.09903
H         15.00626       -3.13616      -11.82744
H         13.53152       -4.09166      -11.48441
H         14.57824       -6.08028      -12.61063
H         16.04963       -5.14301      -12.90787
H         14.68720       -3.49697      -14.29279
H         13.26345       -4.51238      -14.06614
H         14.44270       -6.41827      -15.22057
H         15.87797       -5.41315      -15.41202
H         14.51486       -3.76626      -16.77833
H         13.11970       -4.83349      -16.64384
H         14.41059       -6.65769      -17.82197
H         15.80540       -5.58760      -17.94074
H         14.42220       -3.95987      -19.29954
H         13.05489       -5.06697      -19.21509
H         14.41377       -6.82801      -20.41146
H         15.77776       -5.71595      -20.49168
H         14.38007       -4.10877      -21.84484
H         13.02746       -5.23284      -21.77687
H         15.75795       -5.82927      -23.09544
H         14.25117       -5.45873      -23.95479
H         14.39632       -6.96359      -23.02730
H         17.72133       -3.99178       -8.17274
H         17.25616       -5.21648       -9.39553
H         17.76398       -5.67821       -6.37957
H         18.48939       -6.49470       -7.78813
H         17.06956       -7.94727       -5.65923
H         17.55785       -8.73244       -7.19979
H         14.65784       -8.43895       -6.20601
H         15.68336       -9.88235       -5.96756
H         13.91947      -10.65195       -9.01750
H         13.14851       -9.87573       -7.59545
H         14.26853      -11.26145       -7.36829
