61

O          2.26042        0.31953       -0.98459
C          3.34915        0.63856       -0.08953
C          3.49057       -0.46597        0.98188
C          2.98439       -1.84519        0.49893
C          3.33078       -3.13407        1.28740
C          3.26034       -4.27058        0.21563
C          2.79266       -3.60471       -1.07980
N          3.32663       -2.20252       -0.96314
C          4.77070       -2.07485       -1.38375
C          4.95468       -2.33803       -2.87924
C          6.20043       -1.63798       -3.44281
S          6.03373        0.16643       -3.51051
C          7.03875        0.73819       -2.11915
S          7.81392       -0.30144       -1.06588
N          7.08483        2.08542       -2.03419
C          6.43078        2.99130       -2.99414
C          5.02141        3.41115       -2.56653
C          7.84784        2.74498       -0.95646
C          9.30377        3.00727       -1.34136
C          2.39883       -3.47112        2.46935
C          2.40394       -2.56522        3.70384
O          1.68295       -1.36409        3.35847
C          1.76573       -3.25635        4.90605
C          4.89241       -0.40491        1.60465
H          2.05254        1.10108       -1.51914
H          3.15673        1.59840        0.41451
H          4.28528        0.75045       -0.66497
H          2.77357       -0.23868        1.78378
H          1.88773       -1.76505        0.45150
H          4.36178       -3.06560        1.66412
H          2.55993       -5.06197        0.50822
H          4.24008       -4.74732        0.08312
H          1.69912       -3.52788       -1.13286
H          3.15533       -4.07566       -1.99874
H          2.78768       -1.51960       -1.52684
H          5.37454       -2.74967       -0.76652
H          5.08070       -1.05369       -1.14694
H          4.06848       -1.98466       -3.43282
H          5.04471       -3.41623       -3.08302
H          6.37809       -1.95584       -4.47805
H          7.10090       -1.84533       -2.84064
H          6.41520        2.51244       -3.98299
H          7.07920        3.87364       -3.09040
H          4.34813        2.54425       -2.53423
H          4.61223        4.13212       -3.28704
H          5.02663        3.88892       -1.57737
H          7.79418        2.09863       -0.07142
H          7.32669        3.68675       -0.73054
H          9.82953        2.06431       -1.53560
H          9.81645        3.52240       -0.51784
H          9.38008        3.64339       -2.23387
H          2.68351       -4.47898        2.80781
H          1.35777       -3.54464        2.10934
H          3.45079       -2.30124        3.95600
H          1.49188       -0.88212        4.17865
H          0.73887       -3.57386        4.67567
H          1.73041       -2.57839        5.77149
H          2.34614       -4.13910        5.20835
H          5.70190       -0.66163        0.90788
H          4.97005       -1.05595        2.48362
H          5.08974        0.61810        1.95488
