68

C          0.75437        0.52002       -0.22092
C          2.28036        0.60102       -0.29781
C          2.83501        0.20277       -1.66902
C          4.36204        0.27890       -1.75998
C          4.90663       -0.10991       -3.13749
C          6.43378       -0.04238       -3.23626
C          6.95512       -0.41879       -4.62813
C          8.48693       -0.36893       -4.70764
C          9.09226       -0.87004       -6.02774
C          8.57392       -0.05516       -7.22510
N          9.12805       -0.66679       -8.48654
C          8.71806       -2.11306       -8.62702
C          9.16774       -2.89050       -7.39024
O          8.69183       -2.24123       -6.19344
C          8.61834       -4.31164       -7.37999
C          9.23418       -5.16141       -6.25386
C          8.62255       -6.57647       -6.22282
N          9.03350       -7.45222       -5.14488
C          8.57946       -7.08415       -3.80652
C          9.03102       -8.12496       -2.79537
O         10.46564       -8.10318       -2.77251
O         10.66311       -5.19943       -6.38030
C         10.65203       -0.80633       -6.01585
O         11.29985       -0.46361       -7.01135
O         11.16970       -1.21514       -4.87728
C         12.64265       -1.30843       -4.75174
C         13.14661       -0.19456       -3.85940
H          0.38528        0.81220        0.77135
H          0.39929       -0.50188       -0.42065
H          0.28287        1.18438       -0.96026
H          2.72493       -0.04808        0.47523
H          2.60898        1.62638       -0.05864
H          2.39041        0.85306       -2.44310
H          2.50563       -0.82338       -1.91029
H          4.80736       -0.37758       -0.99224
H          4.69233        1.30293       -1.51300
H          4.46201        0.55056       -3.90282
H          4.57187       -1.13213       -3.38677
H          6.88132       -0.71641       -2.48597
H          6.77536        0.97451       -2.97659
H          6.50186        0.26800       -5.36354
H          6.60933       -1.43179       -4.88534
H          8.91895       -0.98858       -3.90964
H          8.84617        0.65886       -4.53143
H          8.90908        0.98863       -7.18528
H          7.48027       -0.09963       -7.26950
H         10.17288       -0.58789       -8.33610
H          8.84959       -0.12468       -9.31202
H          9.18556       -2.50874       -9.53773
H          7.62440       -2.13115       -8.73593
H         10.27262       -2.94644       -7.37180
H          8.83891       -4.78716       -8.35131
H          7.52221       -4.27368       -7.27203
H          9.05181       -4.65753       -5.29257
H          8.86551       -7.07023       -7.18413
H          7.52296       -6.48242       -6.19506
H         10.04635       -7.58094       -5.13143
H          7.47748       -7.04920       -3.80578
H          8.94286       -6.09165       -3.46471
H          8.65917       -9.11815       -3.10020
H          8.61630       -7.87619       -1.80227
H         10.77730       -8.84692       -2.23582
H         10.89367       -5.89292       -7.02229
H         13.07534       -1.27348       -5.75765
H         12.79907       -2.29978       -4.31000
H         12.97885        0.79110       -4.31254
H         14.22840       -0.31917       -3.71371
H         12.66585       -0.22378       -2.87355
