64

C          0.72833        0.46877       -0.09028
C          2.25220        0.43089       -0.23029
C          2.76363       -0.82950       -0.93721
C          4.28884       -0.88026       -1.07348
C          4.79634       -2.15759       -1.75326
C          6.32635       -2.21870       -1.84471
C          6.86208       -3.45443       -2.57909
N          6.54315       -4.67429       -1.85421
C          6.93734       -5.92237       -2.49426
C          8.45231       -5.98813       -2.83406
N          8.88481       -4.61965       -3.39641
C          8.38242       -3.38821       -2.68104
C          9.30311       -6.25394       -1.56662
O          8.95642       -5.38735       -0.51253
C          9.70973       -5.65019        0.68279
C          9.27723       -4.65405        1.73967
C          8.78958       -7.07111       -3.97176
C          8.45377       -6.60067       -5.45795
C          8.66349       -7.72785       -6.49135
C          7.05853       -6.00369       -5.73936
C         10.30797       -7.37705       -3.93770
O         11.04839       -6.15132       -4.13019
C          8.06367       -8.39223       -3.63830
H          0.39593        1.38025        0.42442
H          0.35806       -0.39124        0.48733
H          0.23448        0.44429       -1.07298
H          2.71620        0.49845        0.76831
H          2.59495        1.32188       -0.78286
H          2.30308       -0.89860       -1.93851
H          2.41743       -1.72069       -0.38404
H          4.74788       -0.79542       -0.07319
H          4.63779       -0.00102       -1.64240
H          4.36334       -2.23311       -2.76610
H          4.41141       -3.02398       -1.18721
H          6.76288       -2.19857       -0.83257
H          6.68988       -1.32000       -2.37026
H          6.44472       -3.44093       -3.61762
H          5.55866       -4.70669       -1.59856
H          6.35362       -6.13815       -3.40441
H          6.73416       -6.73896       -1.78796
H          8.55132       -4.57999       -4.36944
H          9.91784       -4.65953       -3.46480
H          8.71867       -2.52421       -3.26962
H          8.83432       -3.38143       -1.68373
H         10.37764       -6.13940       -1.80494
H          9.14188       -7.30838       -1.26899
H         10.79181       -5.56120        0.46508
H          9.52024       -6.68979        1.01069
H          9.48604       -3.62446        1.41924
H          9.82143       -4.83577        2.67553
H          8.20228       -4.74418        1.94214
H          9.20574       -5.83291       -5.71483
H          7.89030       -8.50358       -6.40824
H          9.64311       -8.21528       -6.42787
H          8.58786       -7.30347       -7.50065
H          6.25117       -6.70874       -5.49615
H          6.98137       -5.78731       -6.81323
H          6.83054       -5.06288       -5.21913
H         10.55382       -8.09112       -4.73456
H         10.58664       -7.84952       -2.98308
H         11.99305       -6.35482       -4.20484
H          6.98719       -8.33463       -3.83948
H          8.19313       -8.68263       -2.58804
H          8.46452       -9.21193       -4.24645
