79

C         12.34636       -7.40537        2.81813
C         11.22587       -7.13978        1.81090
C         11.44619       -5.85562        1.00362
C         10.32108       -5.59177        0.00598
N         10.50748       -4.30423       -0.67185
C          9.89199       -3.97953       -1.83063
O          9.16673       -4.73686       -2.47422
C         10.13831       -2.52453       -2.31628
N          9.37827       -2.25578       -3.52954
C          9.72243       -2.75017       -4.74737
N          8.76023       -3.00525       -5.64807
C          7.31557       -2.94628       -5.38585
C          6.52845       -3.30042       -6.64882
C          6.63788       -4.77088       -7.08050
P          6.07240       -4.97682       -8.79897
O          6.76397       -4.09489       -9.77443
O          6.28412       -6.55519       -8.97168
C          6.05044       -7.18837      -10.26908
C          6.74346       -8.53450      -10.27450
O          4.48016       -4.75453       -8.70857
C          3.76353       -3.87953       -9.63665
C          2.94284       -4.69535      -10.61595
N         11.01135       -2.90137       -5.07171
C         11.52066       -3.64905       -6.22113
C         13.04438       -3.54230       -6.19662
O         13.44010       -3.94419       -4.89114
C         14.73388       -3.52290       -4.45030
C         14.90037       -2.01311       -4.32972
O         13.78910       -1.45322       -3.63295
C         14.03127       -0.08333       -3.29033
C         12.75980        0.60624       -2.84822
O         12.30881        0.07989       -1.60668
C         11.24841        0.85366       -1.05912
H         12.15960       -8.32548        3.38697
H         12.43783       -6.58071        3.54016
H         13.31787       -7.51661        2.31487
H         10.26106       -7.07260        2.34011
H         11.13720       -7.99376        1.11964
H         12.40761       -5.91235        0.46646
H         11.52437       -5.00306        1.70226
H          9.34528       -5.59663        0.52087
H         10.27768       -6.37323       -0.76553
H         11.06101       -3.59862       -0.19346
H         11.20756       -2.31053       -2.45514
H          9.79712       -1.81371       -1.55133
H          8.37432       -2.24195       -3.37578
H          9.04604       -3.17362       -6.60739
H          7.03854       -1.92412       -5.07613
H          7.07779       -3.64213       -4.56417
H          6.85921       -2.64179       -7.46929
H          5.47454       -3.05041       -6.46390
H          6.06098       -5.43176       -6.41850
H          7.67869       -5.12958       -7.06870
H          6.44138       -6.52891      -11.05840
H          4.96281       -7.29823      -10.39988
H          7.82781       -8.41978      -10.14791
H          6.56048       -9.03635      -11.23464
H          6.36048       -9.17830       -9.47205
H          4.49412       -3.23911      -10.14996
H          3.11817       -3.25457       -9.00367
H          3.58657       -5.28078      -11.28597
H          2.33618       -4.02123      -11.23718
H          2.26415       -5.37923      -10.08952
H         11.72197       -2.72080       -4.35931
H         11.15135       -3.22803       -7.16984
H         11.20968       -4.70431       -6.15413
H         13.34510       -2.50193       -6.40802
H         13.47772       -4.19632       -6.97321
H         15.52868       -3.91664       -5.11005
H         14.84416       -3.99177       -3.46334
H         15.00155       -1.52702       -5.32010
H         15.84588       -1.82813       -3.78545
H         14.42356        0.46150       -4.17011
H         14.78851       -0.02907       -2.48713
H         11.97463        0.49805       -3.62418
H         12.98135        1.68691       -2.74894
H         10.98392        0.40718       -0.09254
H         10.36011        0.85343       -1.71937
H         11.55642        1.90159       -0.89491
