58

O          0.75459       -1.25080       -1.14521
C          1.72044       -2.28551       -1.32674
C          2.83052       -1.71525       -2.20383
N          4.00933       -2.58634       -2.18489
C          5.16124       -2.06628       -2.91036
C          6.01701       -1.11562       -2.04935
C          6.55645       -1.80162       -0.76599
C          6.21115       -1.15764        0.58492
C          4.70602       -1.16019        0.85993
C          4.31294       -0.50105        2.17813
C          4.82415        0.94424        2.22270
C          6.33614        0.93434        2.02962
N          6.76075        0.27395        0.72671
C          8.27882        0.36547        0.56849
C          8.72601        1.06364       -0.71713
C          8.51614        2.56164       -0.80418
Br         6.58502        3.00689       -1.04179
Br        10.68227        0.79313       -0.79363
C          4.46362        1.70736        3.51865
C          3.22042        2.61594        3.41574
C          1.93723        1.85902        3.04244
C          3.03104        3.39273        4.72510
O          7.07540       -0.55825       -2.84307
H         -0.07959       -1.64644       -0.85182
H          1.27241       -3.17383       -1.80768
H          2.14939       -2.61023       -0.36038
H          3.10408       -0.72870       -1.79458
H          2.44406       -1.52739       -3.22438
H          3.76437       -3.50738       -2.54517
H          4.89196       -1.52571       -3.83888
H          5.79734       -2.91994       -3.20240
H          5.39850       -0.24042       -1.78656
H          7.64332       -1.92791       -0.87610
H          6.12849       -2.81350       -0.70181
H          6.73089       -1.71238        1.38438
H          4.37906       -2.20778        0.81393
H          4.18117       -0.65408        0.03457
H          4.73079       -1.06114        3.03240
H          3.22213       -0.52810        2.29084
H          4.38887        1.49740        1.36808
H          6.84428        0.38565        2.83764
H          6.74008        1.95470        1.99019
H          6.34390        0.86286       -0.02395
H          8.67113       -0.65606        0.59314
H          8.66524        0.89520        1.44811
H          8.33491        0.55541       -1.60865
H          8.99350        2.97934       -1.69361
H          8.83726        3.10349        0.09182
H          5.31353        2.34175        3.82171
H          4.32599        0.98220        4.33886
H          3.42433        3.35003        2.61399
H          1.71158        1.07289        3.78007
H          1.99111        1.38999        2.04933
H          1.08030        2.54567        3.02236
H          2.81525        2.71109        5.56215
H          2.19091        4.09574        4.64694
H          3.92799        3.97164        4.98762
H          7.45724       -1.26197       -3.39469
