67

O          3.75832        0.04981       -0.76999
C          2.93962       -0.39486       -1.59236
N          2.02179        0.36921       -2.23880
C          1.74596        1.75701       -2.13776
C          0.66884        2.23727       -2.90109
C          0.33385        3.58835       -2.86853
C          1.06788        4.47266       -2.07258
C          2.13780        3.99047       -1.31527
C          2.49082        2.64012       -1.34036
C          2.93673       -1.87852       -1.93529
C          4.35122       -2.45648       -1.76178
C          4.78822       -2.98009       -0.38388
N          4.09323       -4.20576       -0.02425
C          4.76893       -4.95390        1.02052
C          4.81816       -4.12995        2.30471
N          5.43754       -2.77831        1.96209
C          4.76931       -2.00258        0.82347
C          3.39812       -1.45330        1.31581
O          2.34890       -2.03978        1.20320
C          3.37966       -0.07011        2.09263
C          2.81806       -0.08609        3.57549
C          3.51935       -0.97020        4.66240
C          5.02922       -0.66584        4.88944
O          5.87897       -1.18907        4.19468
O          5.32737        0.17504        5.86454
F          2.84512       -0.77756        5.83475
F          3.39651       -2.28265        4.31279
F          2.90567        1.19807        4.03540
F          1.52071       -0.45326        3.54569
F          4.63297        0.48323        2.13820
F          2.54385        0.78194        1.45854
C          5.64402       -4.74350        3.43563
C          5.04967       -6.04555        4.01164
C          5.88368       -6.55572        5.16635
C          6.97485       -7.40561        4.93451
C          7.77987       -7.83770        5.99085
C          7.50163       -7.42424        7.29648
C          6.41344       -6.58216        7.53981
C          5.61093       -6.15074        6.48086
H          1.43095       -0.12492       -2.90245
H          0.09171        1.54662       -3.52120
H         -0.50200        3.95003       -3.46782
H          0.81039        5.53115       -2.04732
H          2.71694        4.67524       -0.69455
H          3.32832        2.27167       -0.75654
H          2.59928       -2.03562       -2.96999
H          2.21235       -2.39566       -1.28606
H          5.08410       -1.70565       -2.08693
H          4.47128       -3.31192       -2.44526
H          5.88537       -3.17959       -0.50878
H          3.91927       -4.78290       -0.84478
H          5.81277       -5.23935        0.74569
H          4.21735       -5.88145        1.21956
H          3.79382       -3.91235        2.63214
H          6.40960       -2.95515        1.66201
H          5.52320       -2.19107        2.83189
H          5.42316       -1.14824        0.61768
H          4.52294        0.45784        6.34598
H          5.73488       -4.01322        4.25451
H          6.67032       -4.94277        3.08076
H          4.99733       -6.81755        3.22931
H          4.01713       -5.85769        4.34602
H          7.19165       -7.74218        3.91735
H          8.62035       -8.50453        5.79532
H          8.12541       -7.76398        8.12372
H          6.18454       -6.26665        8.55860
H          4.75441       -5.50165        6.68016
