55

C          8.27195        5.84748       -1.38627
C          7.96759        4.41064       -0.95587
C          8.52436        3.36468       -1.92735
C          8.23110        1.91732       -1.52019
C          8.82442        0.89289       -2.49206
C          8.54947       -0.56325       -2.10170
C          9.18737       -1.56366       -3.07566
C          8.91187       -3.00704       -2.67615
O          9.42120       -3.98249       -3.62881
C         10.80346       -4.12034       -3.62297
N         11.09533       -5.34769       -4.44409
Si        10.27972       -5.28246       -6.23385
C         10.43695       -3.51050       -6.78698
C         11.30009       -6.45068       -7.27448
C          8.54760       -5.92040       -5.99188
C         12.56858       -5.67635       -4.45432
C         13.15239       -5.97015       -3.06005
C         14.48281       -6.62871       -3.18335
C         15.66088       -6.12136       -2.79888
F         15.78187       -4.91949       -2.24425
F         16.81634       -6.74009       -2.91339
F         14.46350       -7.86417       -3.74941
H          7.86894        6.57623       -0.67016
H          7.83305        6.07173       -2.36976
H          9.35578        6.02112       -1.46107
H          6.87700        4.27560       -0.86038
H          8.38314        4.22957        0.04985
H          9.61655        3.50193       -2.01911
H          8.11289        3.54985       -2.93541
H          7.13956        1.76835       -1.44915
H          8.62854        1.73304       -0.50670
H          9.91538        1.04962       -2.56118
H          8.42764        1.07813       -3.50549
H          7.46051       -0.73539       -2.05821
H          8.92923       -0.74806       -1.08209
H         10.27418       -1.37603       -3.11517
H          8.79691       -1.39467       -4.09288
H          7.83329       -3.20962       -2.64483
H          9.33070       -3.23813       -1.67970
H         11.19132       -4.26592       -2.59894
H         11.34453       -3.28169       -4.09789
H         10.60687       -6.11968       -3.96622
H         11.47740       -3.15784       -6.78365
H          9.82002       -2.82832       -6.18965
H         10.08481       -3.45538       -7.82817
H         12.32679       -6.10606       -7.45120
H         10.80480       -6.50745       -8.25653
H         11.32788       -7.47424       -6.87619
H          7.95244       -5.26006       -5.35202
H          8.54086       -6.93314       -5.56406
H          8.06126       -5.98581       -6.97667
H         13.09232       -4.83722       -4.93241
H         12.69203       -6.55777       -5.09253
H         12.47566       -6.64682       -2.50658
H         13.26794       -5.05775       -2.46252
