77

C          3.94104        5.40461        5.20900
C          4.91530        4.52925        4.41839
C          5.49748        5.23118        3.18682
C          6.47822        4.35970        2.39654
C          7.07730        5.06019        1.17298
C          8.04814        4.17653        0.38264
C          8.64313        4.87207       -0.84576
C          9.58256        3.97280       -1.65786
C         10.13337        4.66474       -2.91035
C         11.03760        3.73835       -3.72981
N         11.52206        4.34813       -4.99365
C         10.65756        4.64791       -5.97551
N          9.45717        4.03128       -6.03305
N         10.94556        5.53411       -6.95749
C         11.56243        6.86070       -6.79170
C         10.49420        7.95582       -6.71549
O          9.53405        7.82290       -7.78552
C          9.82236        8.53204       -8.94715
O         10.86352        9.12802       -9.09429
C          8.66440        8.46877       -9.91506
C          9.08208        8.62802      -11.38144
C          9.86542        7.42762      -11.91764
C         12.99169        4.41996       -5.18975
C         13.65350        3.03709       -5.26766
C         13.20180        2.18842       -6.47095
C         13.89857        0.84572       -6.52668
C         13.36164       -0.26833       -5.86436
C         14.01953       -1.50081       -5.88670
C         15.22757       -1.63576       -6.57633
C         15.77101       -0.53410       -7.24285
C         15.11063        0.69705       -7.21712
H          3.54533        4.87562        6.08662
H          3.08410        5.70697        4.58868
H          4.43037        6.32290        5.56616
H          4.40635        3.60378        4.10036
H          5.74179        4.21005        5.07546
H          6.00524        6.15919        3.50357
H          4.67266        5.54826        2.52428
H          5.96554        3.43690        2.07278
H          7.29469        4.03397        3.06451
H          7.59841        5.97826        1.49615
H          6.26171        5.39229        0.50656
H          7.52517        3.25801        0.06289
H          8.86507        3.84557        1.04705
H          9.18740        5.77814       -0.52797
H          7.82334        5.22157       -1.49813
H          9.03978        3.05763       -1.95480
H         10.41791        3.63797       -1.01928
H         10.70821        5.56053       -2.62509
H          9.29117        5.01481       -3.52811
H         10.54264        2.77179       -3.92865
H         11.93535        3.48867       -3.15108
H          9.27936        3.17518       -5.52364
H          8.68781        4.44616       -6.54368
H         10.31658        5.49069       -7.75703
H         12.23065        7.04053       -7.64432
H         12.16231        6.87961       -5.87451
H         10.98044        8.93994       -6.76344
H          9.90792        7.87007       -5.79079
H          7.98494        9.28639       -9.61727
H          8.10256        7.53731       -9.74931
H          9.67910        9.54519      -11.48446
H          8.17064        8.77502      -11.97846
H         10.81145        7.28981      -11.37401
H         10.11677        7.56374      -12.97736
H          9.27983        6.49924      -11.83457
H         13.41590        5.00451       -4.35949
H         13.18665        4.96468       -6.12000
H         13.49544        2.47421       -4.33497
H         14.73932        3.21086       -5.32758
H         13.39792        2.74648       -7.40117
H         12.11223        2.02503       -6.42230
H         12.41067       -0.17567       -5.33250
H         13.58462       -2.35843       -5.37172
H         15.73994       -2.59810       -6.60152
H         16.70880       -0.63476       -7.79060
H         15.53736        1.55026       -7.75029
