73

C          0.96955       -8.06409       -6.37584
C          2.48932       -8.19261       -6.25013
C          3.19408       -6.84751       -6.04250
C          4.71615       -6.96267       -5.91684
C          5.41964       -5.61369       -5.73771
C          6.94283       -5.72918       -5.63514
C          7.65800       -4.37971       -5.50958
C          9.18289       -4.52081       -5.46206
C          9.91218       -3.17894       -5.44186
O         11.34791       -3.31910       -5.47649
C         11.86820       -3.65763       -6.74658
C         12.97036       -4.71894       -6.57276
O         13.59122       -5.06235       -7.79756
C         12.71249       -5.74294       -8.67344
N         12.14635       -6.91727       -8.00952
C         12.10736       -6.98543       -6.66083
N         11.66982       -8.14350       -6.10038
C         11.11092       -9.22714       -6.87606
O         12.08563       -9.69480       -7.79893
C         11.62852      -10.83032       -8.57377
C         12.72355      -11.21091       -9.54767
N         12.46684       -5.94545       -5.90283
C         12.45659       -6.00277       -4.42399
C         13.65510       -6.74478       -3.80744
C         15.03838       -6.15769       -4.11855
C         15.30508       -4.77610       -3.50853
C         16.73450       -4.27768       -3.76365
N         17.71842       -5.19187       -3.17238
H          0.49333       -9.04168       -6.53036
H          0.69245       -7.42207       -7.22520
H          0.52980       -7.61976       -5.47088
H          2.89486       -8.67839       -7.15427
H          2.73540       -8.86500       -5.41046
H          2.78901       -6.35901       -5.13885
H          2.94821       -6.17498       -6.88335
H          5.11787       -7.46509       -6.81521
H          4.96421       -7.62121       -5.06571
H          5.02897       -5.11213       -4.83559
H          5.16253       -4.95433       -6.58491
H          7.32621       -6.25615       -6.52847
H          7.20536       -6.36557       -4.77125
H          7.30470       -3.85421       -4.60660
H          7.37647       -3.73949       -6.36327
H          9.50845       -5.10664       -6.34046
H          9.47827       -5.10091       -4.57241
H          9.70555       -2.63463       -4.51013
H          9.58280       -2.53765       -6.27946
H         12.32729       -2.77907       -7.23520
H         11.07516       -4.04194       -7.40927
H         13.77035       -4.31799       -5.93785
H         13.31551       -6.07735       -9.52546
H         11.90542       -5.08588       -9.03525
H         12.24735       -7.83615       -8.45511
H         11.94972       -8.33447       -5.14592
H         10.21013       -8.87402       -7.41412
H         10.81156      -10.01927       -6.17002
H         10.69482      -10.56121       -9.10047
H         11.40176      -11.66041       -7.88122
H         12.93646      -10.39233      -10.24856
H         12.41038      -12.08405      -10.13520
H         13.64921      -11.46983       -9.01791
H         11.50258       -6.45323       -4.11178
H         12.41466       -4.96116       -4.08784
H         13.64928       -7.80650       -4.11054
H         13.48782       -6.74981       -2.71765
H         15.19819       -6.12627       -5.21121
H         15.80574       -6.84637       -3.73811
H         15.12788       -4.81886       -2.41906
H         14.60347       -4.01497       -3.89113
H         16.81513       -3.23453       -3.40353
H         16.91853       -4.24903       -4.84999
H         17.75844       -5.07111       -2.15926
H         18.65498       -4.99533       -3.52313
