81

C          2.63398       -0.38249        1.80156
C          3.97653       -0.13945        1.10794
C          4.42244       -1.30921        0.22330
C          5.75068       -1.06483       -0.49930
C          6.19221       -2.23938       -1.37849
C          7.48360       -1.97321       -2.15869
C          7.89125       -3.13779       -3.06640
C          9.17044       -2.87561       -3.87019
C          9.48730       -4.01468       -4.84717
C         10.77238       -3.79438       -5.62467
O         10.87116       -4.84767       -6.62037
C         12.10268       -4.87073       -7.30939
N         12.00238       -5.85592       -8.38771
C         11.74087       -7.14763       -8.09608
N         11.48622       -7.47843       -6.81206
N         11.74639       -8.09176       -9.04653
C         12.10579       -7.86151      -10.45723
C         11.71410       -6.41580      -10.78402
C         12.27830       -5.41685       -9.76395
C         13.75318       -5.16857       -9.97486
N         14.31882       -4.76655      -11.06760
N         15.69200       -4.75662      -10.83013
C         15.85409       -5.14171       -9.59004
O         14.64595       -5.42455       -8.96584
S         17.35127       -5.25994       -8.73545
C         16.90397       -6.36590       -7.34106
C         18.19752       -6.79569       -6.64617
C         17.92853       -7.70782       -5.44101
C         19.21380       -8.14109       -4.73148
C         13.56299       -8.29447      -10.71029
C         13.97551       -8.14148      -12.17765
C         15.12034       -9.01575      -12.69296
C         16.56314       -8.68444      -12.17060
Br        16.87262       -9.10249      -10.26130
F         17.47574       -9.36101      -12.88382
F         16.78063       -7.36260      -12.34502
Br        14.74415      -10.93410      -12.44437
F         15.19816       -8.79249      -14.05101
H          2.34492        0.47054        2.43067
H          2.67244       -1.27241        2.44769
H          1.82868       -0.54207        1.06869
H          4.75376        0.05915        1.86546
H          3.91416        0.77511        0.49386
H          3.63643       -1.51856       -0.52415
H          4.50156       -2.22258        0.83942
H          6.53860       -0.84632        0.24279
H          5.66347       -0.15718       -1.12225
H          5.38350       -2.48338       -2.08988
H          6.32161       -3.13807       -0.75035
H          8.30267       -1.75016       -1.45299
H          7.35612       -1.06415       -2.77190
H          7.06478       -3.35652       -3.76516
H          8.02279       -4.05021       -2.45892
H         10.01652       -2.72492       -3.17813
H          9.06168       -1.93291       -4.43263
H          8.65982       -4.12476       -5.56640
H          9.55869       -4.96856       -4.29762
H         11.65671       -3.82840       -4.96271
H         10.76909       -2.82089       -6.14637
H         12.93660       -5.13930       -6.63264
H         12.32886       -3.89800       -7.77727
H         11.07826       -6.73508       -6.23620
H         11.23724       -8.43497       -6.58993
H         11.48324       -9.03158       -8.76927
H         11.44875       -8.52113      -11.04532
H         10.61768       -6.33585      -10.78422
H         12.06918       -6.12611      -11.77989
H         11.75106       -4.45953       -9.90261
H         16.36546       -7.23277       -7.74922
H         16.24286       -5.82348       -6.65084
H         18.75481       -5.90386       -6.31428
H         18.84478       -7.31711       -7.36972
H         17.37200       -8.59933       -5.77685
H         17.27024       -7.18531       -4.72668
H         19.87892       -8.69427       -5.40970
H         18.99370       -8.79427       -3.87690
H         19.77269       -7.27362       -4.35217
H         13.63917       -9.35386      -10.42084
H         14.24644       -7.74879      -10.04820
H         14.25464       -7.10090      -12.40385
H         13.13149       -8.39759      -12.83709
