82

C          2.63492        3.07771       -1.89681
C          3.04543        3.67409       -0.54806
C          3.91556        2.71865        0.28188
C          4.23339        3.29245        1.65316
O          4.95104        2.29991        2.46955
C          6.27526        2.42100        2.57612
O          6.96817        3.30829        2.11300
C          6.83997        1.25159        3.40205
N          8.23947        1.45471        3.75795
C          9.28984        1.21658        2.73377
C         10.13648        2.49781        2.76809
N          9.77065        3.06948        4.07421
C          8.62168        2.53172        4.50884
N          7.92761        2.97445        5.56387
C          7.11656        2.14287        6.47368
C          7.55658        2.32860        7.92671
C          6.70024        1.49849        8.89015
N          7.24871        1.54272       10.23742
C          6.49414        0.69427       11.17958
C          7.02985        0.77705       12.58722
C          7.66837       -0.31248       13.19001
C          8.13031       -0.25750       14.50704
C          7.95758        0.91394       15.24681
C          7.33228        2.01983       14.66856
C          6.87375        1.94948       13.35010
O          6.25224        3.01915       12.73719
C         10.49322        4.20354        4.65176
C         10.36483        5.48388        3.81298
C          8.92576        5.96588        3.59624
C          8.82897        7.06731        2.53449
C          7.39508        7.55324        2.29912
C          7.25478        8.49951        1.10816
O          8.14171        9.64228        1.20086
C          7.66113       10.72020        1.89646
O          6.57185       10.74089        2.43851
C          8.65457       11.82231        1.87259
C          8.39475       12.99567        2.45992
H          2.01344        3.78037       -2.46686
H          2.05486        2.15305       -1.76386
H          3.51270        2.83469       -2.51309
H          2.14139        3.93402        0.02745
H          3.58786        4.62033       -0.70866
H          4.85586        2.50687       -0.25311
H          3.39385        1.75672        0.41051
H          3.32163        3.49978        2.22809
H          4.84761        4.20055        1.59472
H          6.76260        0.32548        2.81648
H          6.21342        1.09885        4.28826
H          8.83155        1.05477        1.75258
H          9.87132        0.32509        3.00879
H          9.87757        3.19512        1.95741
H         11.21390        2.29141        2.73969
H          8.19112        3.88904        5.91886
H          7.25389        1.09438        6.17815
H          6.05168        2.39777        6.35044
H          7.48841        3.39669        8.19980
H          8.60994        2.03015        8.03905
H          6.70684        0.44334        8.56343
H          5.63931        1.83369        8.82835
H          7.22334        2.50256       10.59020
H          6.57479       -0.34667       10.83007
H          5.41267        0.94997       11.18400
H          7.79492       -1.22826       12.60892
H          8.61758       -1.12362       14.95381
H          8.30743        0.97245       16.27783
H          7.19571        2.94028       15.24248
H          6.15475        3.73437       13.38666
H         11.55064        3.91190        4.74654
H         10.12545        4.35873        5.67712
H         10.85044        5.31998        2.83678
H         10.96357        6.26193        4.31123
H          8.50916        6.33208        4.55222
H          8.28961        5.12400        3.27660
H          9.24249        6.67923        1.58676
H          9.46663        7.92024        2.81592
H          7.00258        8.04552        3.20236
H          6.73839        6.68819        2.09992
H          6.22028        8.85747        1.01897
H          7.55541        8.00366        0.17460
H          9.59088       11.63006        1.34689
H          7.44437       13.15907        2.97100
H          9.11327       13.81446        2.44093
