62

C          0.49196       -0.89389        1.66793
C          1.97825       -1.02895        2.00605
C          2.59633        0.26372        2.54968
C          4.08891        0.14180        2.87158
C          4.70688        1.43722        3.40671
C          6.20745        1.32414        3.69332
C          6.82853        2.63442        4.18835
C          8.33950        2.52674        4.43564
C          8.94831        3.85415        4.84590
O         10.37794        3.67746        5.01572
C         11.10194        4.90149        5.20558
C         12.60542        4.58105        5.13174
Br        13.54775        6.16307        5.80896
C         13.01093        3.40976        6.03856
N         12.49775        2.13940        5.39264
C         13.08850        1.95022        4.01836
C         12.71583        3.15507        3.15676
O         13.09287        4.39104        3.81845
C         13.43769        3.16087        1.81427
C         12.99987        2.00593        0.92192
O         12.28326        1.09032        1.29599
O         13.52057        2.13604       -0.30195
C         13.21185        1.08094       -1.27608
C         11.92204        1.37385       -2.02973
C         11.67320        0.33094       -3.12475
H          0.07896       -1.83636        1.28365
H          0.32507       -0.12202        0.90196
H         -0.09593       -0.61108        2.55370
H          2.53381       -1.34515        1.10678
H          2.11745       -1.83596        2.74522
H          2.04984        0.57582        3.45709
H          2.44727        1.07512        1.81536
H          4.63240       -0.17159        1.96260
H          4.24023       -0.66766        3.60732
H          4.17965        1.74302        4.32714
H          4.53731        2.24919        2.67788
H          6.72989        0.99909        2.77649
H          6.38102        0.52942        4.43981
H          6.32419        2.95574        5.11527
H          6.63774        3.42807        3.44575
H          8.84037        2.17391        3.51837
H          8.53476        1.77577        5.22025
H          8.51943        4.22826        5.79210
H          8.78589        4.62088        4.06834
H         10.85732        5.34719        6.18456
H         10.85856        5.62778        4.41231
H         12.56539        3.49517        7.03658
H         14.10192        3.33795        6.11658
H         11.46067        2.28309        5.30508
H         12.68875        1.32537        5.98779
H         12.67629        1.03536        3.57655
H         14.17710        1.85878        4.13943
H         11.62746        3.14602        2.98665
H         14.52978        3.12061        1.95225
H         13.23187        4.11239        1.30445
H         13.16363        0.12118       -0.74408
H         14.08119        1.08764       -1.94589
H         11.98763        2.38019       -2.47101
H         11.08146        1.38252       -1.31946
H         12.48740        0.31916       -3.86340
H         10.74176        0.54825       -3.66233
H         11.58597       -0.68166       -2.70520
