98

C          4.99632       -3.09413       -0.67857
C          5.77410       -2.28221        0.35953
C          5.29084       -0.83292        0.48662
C          6.07556       -0.01464        1.51643
C          5.60065        1.43618        1.64201
C          6.41390        2.25337        2.65137
C          5.97508        3.71838        2.73806
C          6.82451        4.50859        3.74136
N          6.53530        5.95575        3.73409
C          5.62865        6.53519        4.53580
S          5.33222        8.20566        4.54449
S          4.77123        5.38469        5.60113
C          3.81526        6.41798        6.75645
C          2.28546        6.48309        6.53866
C          1.74553        7.83214        6.00200
C          1.29518        8.00235        4.54413
N          2.39382        7.77107        3.52777
C          2.32261        6.32806        3.06956
C          0.85355        5.91895        3.29849
C          0.14955        7.09549        4.02858
C         -0.86580        7.86764        3.12991
C         -0.26677        8.52543        1.90010
C         -0.19055        7.76909        0.71345
C          0.43378        8.25175       -0.43479
C          1.00461        9.52691       -0.41903
C          0.89042       10.31176        0.72614
C          0.24466        9.84900        1.88897
C          0.07581       10.83429        3.02763
C          2.87481        6.21703        1.63861
C          2.77207        4.86138        1.12293
C          2.67154        3.72988        0.70907
C          7.33200        6.74388        2.77336
C          8.67360        7.20271        3.35543
C          9.52503        7.93924        2.31637
C         10.89427        8.36406        2.85836
C         11.76302        9.08341        1.82155
C         13.14407        9.48161        2.35204
C         14.01689       10.19752        1.31493
C         15.39779       10.58500        1.84966
H          5.36811       -4.12567       -0.74242
H          5.08261       -2.64886       -1.68102
H          3.92563       -3.14281       -0.42977
H          6.84629       -2.28302        0.10000
H          5.70265       -2.77500        1.34383
H          4.21892       -0.82962        0.75467
H          5.35769       -0.33972       -0.49956
H          7.14616       -0.02314        1.24670
H          6.00999       -0.50724        2.50225
H          4.53634        1.45146        1.93535
H          5.65049        1.92602        0.65361
H          7.48242        2.20940        2.37718
H          6.33785        1.78537        3.64808
H          4.91348        3.77687        3.02348
H          6.05268        4.18720        1.74319
H          7.89269        4.40163        3.50309
H          6.69041        4.12432        4.76285
H          4.28023        7.41501        6.73632
H          4.03629        5.95785        7.72830
H          1.82784        6.32514        7.52491
H          1.94467        5.62927        5.93565
H          2.48009        8.62148        6.22347
H          0.85104        8.10180        6.58362
H          1.01848        9.05730        4.44310
H          3.36937        7.99839        3.90931
H          2.20748        8.38884        2.72123
H          2.98449        5.77021        3.74375
H          0.82022        5.00493        3.90333
H          0.36301        5.68017        2.34825
H         -0.41534        6.71551        4.89125
H         -1.38633        8.60354        3.75883
H         -1.63320        7.14772        2.81023
H         -0.64780        6.77811        0.69000
H          0.46602        7.64078       -1.33741
H          1.50201        9.92243       -1.30501
H          1.28393       11.33063        0.71811
H         -0.33936       11.77649        2.64371
H          1.03586       11.09279        3.50123
H         -0.60262       10.48118        3.81231
H          3.93164        6.53585        1.63344
H          2.32265        6.90411        0.97305
H          2.59315        2.73333        0.32667
H          6.73052        7.60915        2.46625
H          7.49208        6.10113        1.89441
H          9.22907        6.32888        3.73470
H          8.48136        7.85530        4.22117
H          8.97879        8.82868        1.95762
H          9.66852        7.29231        1.43298
H         11.43036        7.47230        3.22773
H         10.75294        9.01728        3.73673
H         11.23451        9.98449        1.46380
H         11.88615        8.43445        0.93656
H         13.67094        8.57956        2.71055
H         13.02329       10.13077        3.23726
H         13.49126       11.10043        0.96045
H         14.13255        9.54923        0.42973
H         15.31689       11.25685        2.71707
H         15.99524       11.10071        1.08579
H         15.96479        9.69880        2.17145
