68

C         10.97053        2.04242       -5.64763
C         10.57387        0.58754       -5.38913
C         10.17411        0.31894       -3.93453
C          9.77738       -1.13581       -3.66604
C          9.40494       -1.40957       -2.20586
C          9.01930       -2.86666       -1.93312
C          8.71319       -3.13325       -0.45577
C          8.31818       -4.56669       -0.13322
O          9.35938       -5.52900       -0.52943
C         10.36172       -5.73052        0.33358
O         10.49772       -5.17094        1.40848
C         11.31129       -6.80315       -0.19283
C         12.77510       -6.64386        0.23117
S         13.50113       -5.06684       -0.44440
C         13.63768       -4.39589        1.13175
N         13.34819       -5.21223        2.09866
C         13.07661       -6.61377        1.76077
C         14.29507       -7.48304        2.12430
C         14.67619       -7.45106        3.61714
O         16.10553       -7.53119        3.80545
C         16.79508       -6.37523        3.56432
O         16.24538       -5.35635        3.17951
C         18.26880       -6.52836        3.85756
C         18.94608       -7.73929        3.19036
C         18.93828       -7.67396        1.66190
C         14.08606       -2.98795        1.36897
C         13.93828       -2.49779        2.81221
O         13.58194       -3.18419        3.75795
O         14.26603       -1.21122        2.88433
C         14.20294       -0.60755        4.21230
H         11.25629        2.20170       -6.69610
H         11.82446        2.34034       -5.02076
H         10.14015        2.72745       -5.42153
H         11.40973       -0.07836       -5.66327
H          9.73668        0.31004       -6.05107
H          9.33641        0.98296       -3.65853
H         11.01206        0.59818       -3.27062
H         10.60871       -1.80085       -3.96063
H          8.92773       -1.40855       -4.31550
H          8.57178       -0.74910       -1.90968
H         10.25447       -1.13030       -1.55616
H          9.83577       -3.52812       -2.26816
H          8.14103       -3.13609       -2.54441
H          7.87256       -2.49825       -0.12865
H          9.57177       -2.84563        0.17156
H          7.44608       -4.88877       -0.71604
H          8.12140       -4.69889        0.93837
H         11.23508       -6.86057       -1.28679
H         10.95095       -7.77543        0.18727
H         13.35710       -7.45179       -0.23166
H         13.37436       -4.80785        3.05729
H         12.18061       -6.92068        2.31921
H         15.15374       -7.13572        1.53211
H         14.07946       -8.51467        1.80975
H         14.27891       -8.32183        4.15141
H         14.31342       -6.54006        4.11366
H         18.36759       -6.61001        4.95274
H         18.74881       -5.58851        3.55391
H         18.46190       -8.66378        3.53542
H         19.98363       -7.77810        3.55274
H         17.91351       -7.67578        1.25920
H         19.45946       -8.53813        1.22958
H         19.43819       -6.76511        1.29655
H         13.56071       -2.29990        0.69049
H         15.15377       -2.91622        1.09895
H         14.52002        0.42762        4.06525
H         14.88008       -1.13728        4.89162
H         13.17636       -0.65600        4.59282
