102

C          2.60285        1.56454       -0.18176
C          3.54185        0.36967       -0.36104
C          4.05328       -0.20270        0.96507
C          4.97870       -1.41178        0.79971
C          5.45766       -1.99893        2.13031
C          6.32479       -3.25249        1.97545
C          6.66876       -3.89969        3.31937
C          7.53765       -5.15717        3.16915
N          7.63709       -5.91967        4.42442
C          6.74076       -6.85772        4.78120
S          6.73055       -7.64161        6.26293
S          5.55385       -7.21933        3.46652
C          4.45419       -8.42905        4.24677
C          3.12291       -7.83628        4.72089
C          3.32211       -6.73174        5.76472
N          2.02571       -6.17714        6.20933
C          1.16693       -6.79861        7.07131
N          0.06301       -6.10723        7.24205
N          0.20624       -5.01877        6.44427
C          1.39539       -5.03895        5.79982
C          2.08008       -3.97729        4.98076
O          3.19867       -3.63089        5.29364
C          1.42442       -3.39723        3.68689
C          1.87397       -4.18511        2.37604
C          0.81574       -5.21754        1.85597
C         -0.54044       -4.62236        1.35956
O         -0.58776       -3.57773        0.77261
O         -1.61582       -5.39042        1.61097
F          1.38061       -5.91342        0.84018
F          0.59384       -6.12058        2.89751
F          2.17421       -3.31317        1.40581
F          3.00599       -4.89649        2.68066
F          0.05382       -3.44258        3.77398
F          1.79953       -2.11227        3.57753
C         -0.85335       -3.99852        6.47887
C         -0.34956       -2.62130        6.92656
O         -1.46290       -1.78540        6.78569
C         -1.28141       -0.46141        7.31012
C         -2.58222        0.29237        7.06925
O         -2.42343        1.57799        7.63232
C         -3.58525        2.38734        7.48114
C          8.77078       -5.58590        5.30537
C          9.99495       -6.46367        5.02116
C         11.17648       -6.13844        5.93942
C         12.39893       -7.01880        5.65785
C         13.59909       -6.71678        6.56037
C         14.80988       -7.61121        6.27506
C         16.02753       -7.30241        7.15299
C         17.22663       -8.20834        6.86156
H          2.25566        1.95265       -1.14884
H          3.10211        2.39039        0.34661
H          1.71252        1.28862        0.40325
H          4.40212        0.66610       -0.98424
H          3.02313       -0.42579       -0.92276
H          3.19003       -0.48846        1.59226
H          4.58143        0.58935        1.52468
H          5.85252       -1.12487        0.18960
H          4.45570       -2.19488        0.22358
H          4.58259       -2.24316        2.75774
H          6.01861       -1.23213        2.69172
H          7.24891       -2.99886        1.42854
H          5.79285       -3.98968        1.34875
H          5.73509       -4.17430        3.83594
H          7.18186       -3.17535        3.97240
H          8.56062       -4.89518        2.86403
H          7.14355       -5.81093        2.37691
H          5.02543       -8.87537        5.07852
H          4.27013       -9.19964        3.48705
H          2.51441       -8.65211        5.14529
H          2.56350       -7.42622        3.86753
H          3.91939       -5.90727        5.36233
H          3.84580       -7.10129        6.65743
H          1.38199       -7.74584        7.55604
H         -1.36356       -6.20102        2.09356
H         -1.59279       -4.38598        7.18678
H         -1.31589       -3.92128        5.48931
H          0.49721       -2.28028        6.28989
H          0.01907       -2.65998        7.97058
H         -0.44241        0.04273        6.79829
H         -1.05795       -0.50431        8.39090
H         -3.42196       -0.25516        7.54198
H         -2.78945        0.34998        5.98227
H         -3.36211        3.35301        7.94816
H         -4.45882        1.93343        7.98296
H         -3.83001        2.54609        6.41568
H          8.43760       -5.71266        6.34417
H          9.00300       -4.52261        5.14495
H         10.29776       -6.34204        3.96754
H          9.70525       -7.51889        5.14629
H         10.86711       -6.26417        6.99129
H         11.45478       -5.07581        5.82705
H         12.69833       -6.89778        4.60205
H         12.11429       -8.07935        5.77083
H         13.30071       -6.83048        7.61739
H         13.88946       -5.65817        6.44053
H         15.09426       -7.51144        5.21243
H         14.52180       -8.66878        6.41036
H         15.74305       -7.39576        8.21498
H         16.31830       -6.24763        7.01063
H         16.97770       -9.26703        7.02803
H         18.08218       -7.96407        7.50577
H         17.55827       -8.10871        5.81722
