65

N          1.10457       -1.45596        0.21592
C          2.47592       -0.96558        0.06866
C          2.99916       -0.43016        1.40491
C          4.45746        0.02892        1.33011
C          4.99215        0.53934        2.67257
C          6.44176        1.00956        2.54054
N          6.98950        1.59826        3.79970
C          7.54542        0.68959        4.62747
C          8.11706        1.00213        5.86014
C          8.68041        0.00706        6.70416
C          9.23853        0.39487        7.89967
C          9.26956        1.76283        8.27356
C          8.74215        2.76624        7.47512
C          8.12783        2.38286        6.24339
C          7.49968        3.29069        5.36873
C          6.91427        2.94764        4.15989
C          6.28375        4.10472        3.35004
C          5.22611        4.84830        4.22652
C          3.88831        4.14674        4.54646
C          4.00581        3.01555        5.57910
C          2.88255        5.19909        5.03921
C          7.44969        5.11701        3.00224
O          8.02154        5.83019        4.09196
C          5.64532        3.82756        1.97223
C          8.77531        4.20121        7.92973
C          7.56949        4.62051        8.76572
C          6.28808        3.89434        8.79135
O          7.22858        3.77605        9.87270
H          0.81528       -1.97831       -0.61052
H          0.44768       -0.68061        0.31409
H          2.59938       -0.18318       -0.70939
H          3.10154       -1.81602       -0.24599
H          2.88242       -1.21933        2.16444
H          2.36450        0.41169        1.73438
H          4.55687        0.82482        0.57095
H          5.08851       -0.80516        0.97774
H          4.93252       -0.25647        3.43307
H          4.35959        1.36017        3.04259
H          6.56137        1.73630        1.73787
H          7.09608        0.16289        2.29671
H          7.53421       -0.33792        4.26513
H          8.66315       -1.04016        6.39977
H          9.67047       -0.34884        8.56932
H          9.72529        2.03522        9.22631
H          7.47774        4.34152        5.63375
H          4.99332        5.77606        3.67645
H          5.68230        5.17193        5.17492
H          3.48093        3.72097        3.61319
H          4.40228        3.39864        6.53134
H          4.65740        2.19309        5.25795
H          3.01766        2.58198        5.78536
H          3.23859        5.68509        5.96086
H          1.90946        4.74204        5.26276
H          2.71989        5.98476        4.28824
H          7.05117        5.82018        2.25414
H          8.26739        4.55230        2.52901
H          7.56872        6.68241        4.17807
H          4.86899        3.05822        1.98190
H          6.38923        3.57724        1.20330
H          5.15991        4.75618        1.64292
H          8.86025        4.88862        7.07432
H          9.67637        4.36632        8.53995
H          7.55304        5.69057        9.00532
H          6.16368        2.98707        8.19230
H          5.36535        4.43087        9.03229
