86

C          0.68572        0.34477        0.25463
C          2.21488        0.30520        0.19185
C          2.76669       -1.02565       -0.33146
C          4.29683       -1.08278       -0.38377
C          4.84436       -2.42116       -0.89022
C          6.37458       -2.48825       -0.92537
C          6.91937       -3.83440       -1.41367
C          8.44950       -3.90672       -1.43862
C          8.99441       -5.25770       -1.91312
C         10.52476       -5.32821       -1.93668
C         11.07225       -6.68121       -2.40234
C         12.60271       -6.74276       -2.44072
C         13.15365       -8.09548       -2.90377
C         14.68387       -8.14234       -2.96379
C         15.24307       -9.49350       -3.42179
C         16.77300       -9.51755       -3.50319
C         17.34511      -10.86810       -3.94894
C         18.87409      -10.86097       -4.05608
C         19.45749      -12.21621       -4.46749
C         21.00197      -12.16442       -4.58263
C         21.60524      -13.46315       -4.97383
N         22.01248      -14.43318       -4.13528
C         22.48135      -15.52437       -4.83738
C         22.36369      -15.22256       -6.16851
N         21.80862      -13.93593       -6.22364
C         21.45079      -13.21367       -7.44897
C         22.39906      -12.13123       -7.90326
C         23.59275      -11.70092       -7.48290
Br        24.63014      -12.37636       -6.04541
Br        21.65369      -11.23763       -9.41620
C         22.72058      -16.03219       -7.34050
C         22.23467      -17.34389       -7.45114
C         22.61530      -18.10570       -8.55817
N         23.41837      -17.65149       -9.53023
C         23.88079      -16.39856       -9.41554
C         23.57084      -15.55117       -8.34928
H          0.32137        1.30905        0.63559
H          0.29232       -0.44296        0.91459
H          0.24101        0.19218       -0.74037
H          2.62988        0.49915        1.19568
H          2.57987        1.12659       -0.44808
H          2.35872       -1.21740       -1.33994
H          2.39309       -1.84818        0.30422
H          4.70280       -0.88176        0.62357
H          4.67183       -0.26701       -1.02694
H          4.44687       -2.61918       -1.90144
H          4.45950       -3.23598       -0.25166
H          6.77104       -2.28030        0.08431
H          6.76153       -1.68089       -1.57201
H          6.52761       -4.04176       -2.42525
H          6.52729       -4.64079       -0.76884
H          8.84057       -3.69128       -0.42845
H          8.84235       -3.10574       -2.08965
H          8.60381       -5.47458       -2.92313
H          8.60210       -6.05816       -1.26114
H         10.91540       -5.10465       -0.92816
H         10.91585       -4.53116       -2.59357
H         10.67346       -6.91015       -3.40643
H         10.69091       -7.47729       -1.73869
H         13.00284       -6.51017       -1.43803
H         12.98189       -5.94791       -3.10714
H         12.74219       -8.33525       -3.90013
H         12.78894       -8.88926       -2.22825
H         15.09610       -7.89616       -1.96941
H         15.04494       -7.35037       -3.64342
H         14.82068       -9.74877       -4.40953
H         14.89975      -10.28477       -2.73248
H         17.19562       -9.25153       -2.51856
H         17.11243       -8.73100       -4.19977
H         16.91080      -11.14728       -4.92471
H         17.02950      -11.65249       -3.23926
H         19.30930      -10.55792       -3.08810
H         19.18748      -10.09305       -4.78425
H         19.02406      -12.53410       -5.43033
H         19.17499      -12.98928       -3.73456
H         21.43701      -11.86057       -3.61831
H         21.30606      -11.39537       -5.30783
H         21.99062      -14.34959       -3.12296
H         22.88034      -16.40586       -4.35142
H         20.45369      -12.77344       -7.30631
H         21.34852      -13.96408       -8.24615
H         24.09946      -10.87751       -7.98078
H         21.56138      -17.75735       -6.69937
H         22.25032      -19.12966       -8.67174
H         24.54250      -16.05357      -10.21414
H         24.01197      -14.55578       -8.29748
