119

C         32.45289        5.47561        2.48076
C         31.73269        5.50732        1.13003
C         30.22165        5.73478        1.25363
C         29.48898        5.76969       -0.09137
C         27.98249        6.02162        0.03487
C         27.25230        6.05825       -1.31140
C         25.74955        6.33635       -1.19615
C         25.03227        6.35495       -2.54970
C         23.52770        6.63232       -2.45935
C         22.82981        6.59491       -3.82246
C         21.31735        6.83913       -3.76705
C         20.65001        6.70519       -5.13932
C         19.12866        6.89545       -5.13628
C         18.51707        6.65201       -6.52241
C         16.98386        6.65509       -6.59335
C         16.26880        7.96774       -6.19703
C         16.83854        9.30042       -6.70208
C         16.47229       10.49122       -5.77790
C         14.96043       10.69961       -5.57432
C         14.60363       11.91462       -4.70833
C         13.09143       12.04013       -4.49436
C         12.67254       13.25710       -3.66219
C         11.15830       13.32234       -3.43495
C         10.69449       14.52868       -2.61160
C          9.18318       14.53044       -2.35772
C          8.68297       15.73028       -1.54665
C          7.17301       15.69232       -1.29022
C          6.63485       16.89837       -0.51370
C          5.12163       16.83517       -0.28297
C          4.54449       18.04613        0.45647
C          3.02816       17.96115        0.65869
C          2.42290       19.16895        1.37998
C          0.90438       19.07165        1.56458
C          0.29396       20.28730        2.26602
O         17.16126       11.67414       -6.20946
C         16.80961       12.06981       -7.52445
C         17.10524       10.96967       -8.53230
N         16.40311        9.68990       -8.12883
C         16.56253        8.60337       -9.18587
C         16.05471        9.03431      -10.52638
C         16.81439        9.05771      -11.62461
H         33.53301        5.31475        2.35943
H         32.06689        4.66774        3.12033
H         32.31752        6.42084        3.02757
H         31.91480        4.56122        0.59239
H         32.16781        6.30047        0.49843
H         30.04076        6.68220        1.79191
H         29.78527        4.94213        1.88703
H         29.65651        4.81649       -0.62346
H         29.93594        6.55231       -0.72979
H         27.81690        6.97560        0.56604
H         27.53339        5.24035        0.67314
H         27.40488        5.09759       -1.83444
H         27.71513        6.82690       -1.95540
H         25.59456        7.30257       -0.68437
H         25.28472        5.57358       -0.54690
H         25.19025        5.38567       -3.05497
H         25.50336        7.11220       -3.20108
H         23.36182        7.61546       -1.98478
H         23.05864        5.89039       -1.78948
H         23.01612        5.61332       -4.29298
H         23.29493        7.34021       -4.49172
H         21.11759        7.84138       -3.34888
H         20.85668        6.12049       -3.06694
H         20.87883        5.70673       -5.55089
H         21.10618        7.42782       -5.83946
H         18.88772        7.90938       -4.76842
H         18.67098        6.19761       -4.41371
H         18.85850        5.66981       -6.88557
H         18.94137        7.37779       -7.24106
H         16.59557        5.87617       -5.91892
H         16.67836        6.33255       -7.59951
H         16.30059        8.04995       -5.09931
H         15.19570        7.89337       -6.43930
H         17.93546        9.25318       -6.76281
H         16.92878       10.26563       -4.80204
H         14.55359        9.79056       -5.10526
H         14.42303       10.79115       -6.53869
H         14.99612       12.83456       -5.16924
H         15.11531       11.82585       -3.73536
H         12.71585       11.12275       -4.00785
H         12.58748       12.08632       -5.47693
H         13.01320       14.18035       -4.16259
H         13.18986       13.23159       -2.68756
H         10.83003       12.39522       -2.93255
H         10.64370       13.33194       -4.41228
H         10.98275       15.46061       -3.12890
H         11.22841       14.54123       -1.64530
H          8.90422       13.59814       -1.83536
H          8.65180       14.50159       -3.32560
H          8.94197       16.66412       -2.07600
H          9.21884       15.77110       -0.58211
H          6.92145       14.76641       -0.74316
H          6.64347       15.62133       -2.25693
H          6.88374       17.82534       -1.05993
H          7.15334       16.97261        0.45840
H          4.87852       15.91638        0.27966
H          4.61246       16.73194       -1.25772
H          4.78786       18.96654       -0.10324
H          5.04098       18.14997        1.43737
H          2.78804       17.04234        1.22261
H          2.53887       17.84470       -0.32473
H          2.66278       20.08904        0.81792
H          2.90367       19.28643        2.36742
H          0.66710       18.15810        2.13605
H          0.42912       18.93951        0.57754
H          0.71686       20.42244        3.27284
H         -0.79466       20.18513        2.37543
H          0.48548       21.21237        1.70194
H         17.42355       12.94795       -7.76370
H         15.74954       12.38143       -7.58985
H         18.17759       10.73309       -8.56648
H         16.76557       11.23612       -9.54073
H         15.39433        9.90125       -8.06923
H         15.99704        7.74057       -8.81499
H         17.62764        8.33946       -9.21289
H         14.98804        9.27399      -10.59469
H         17.87539        8.79951      -11.59512
H         16.39864        9.31518      -12.59816
