67

C          0.59637       -0.12108        0.13979
C          2.12495       -0.17444        0.07279
C          2.71325        0.71016       -1.03165
C          4.24252        0.66742       -1.11301
C          4.81667        1.55662       -2.22026
C          6.34504        1.52043       -2.31827
C          6.90088        2.41531       -3.43039
C          8.42810        2.38692       -3.54487
C          8.96753        3.27858       -4.66774
C         10.49358        3.24829       -4.79894
C         11.01713        4.11487       -5.94883
C         12.54044        4.05727       -6.10993
C         13.04160        4.87177       -7.30835
C         14.55681        4.74753       -7.49291
N         15.05013        5.45178       -8.68849
C         15.21316        4.88596       -9.95558
C         15.63898        5.86488      -10.79237
N         15.71664        7.04015      -10.04675
C         15.35188        6.76792       -8.76854
N         15.27258        7.69391       -7.78659
C         16.06796        8.40171      -10.52397
O         17.02358        9.00124       -9.71101
C         18.37900        8.50849       -9.90417
C         19.30809        9.27772       -8.98254
C         20.76915        8.85406       -9.16559
H          0.20375       -0.76328        0.94006
H          0.14368       -0.45509       -0.80592
H          0.24064        0.90251        0.33068
H          2.45170       -1.21644       -0.08427
H          2.54794        0.13021        1.04517
H          2.38579        1.75337       -0.87481
H          2.28858        0.40634       -2.00507
H          4.57149       -0.37462       -1.27277
H          4.66934        0.97207       -0.14106
H          4.48773        2.59816       -2.05719
H          4.38380        1.25396       -3.19018
H          6.67694        0.48049       -2.48511
H          6.78178        1.82453       -1.35066
H          6.56755        3.45456       -3.26194
H          6.45895        2.11119       -4.39577
H          8.76314        1.34802       -3.71147
H          8.87407        2.69729       -2.58363
H          8.63523        4.31824       -4.50089
H          8.51536        2.96815       -5.62621
H         10.82606        2.20619       -4.94890
H         10.95145        3.57860       -3.85021
H         10.70286        5.16174       -5.79475
H         10.54236        3.79143       -6.89149
H         12.85394        3.00562       -6.22854
H         13.02439        4.41663       -5.18512
H         12.76471        5.93271       -7.18879
H         12.54573        4.52480       -8.22938
H         14.85511        3.69651       -7.60590
H         15.10820        5.13188       -6.62006
H         15.02412        3.83461      -10.13202
H         15.89380        5.83977      -11.84446
H         15.87922        8.50668       -7.88848
H         15.07390        7.38957       -6.84109
H         15.16544        9.02790      -10.47596
H         16.39193        8.28950      -11.57179
H         18.65179        8.65695      -10.96417
H         18.41168        7.42536       -9.68753
H         18.99449        9.11576       -7.93881
H         19.19390       10.35324       -9.18485
H         20.91379        7.78507       -8.95250
H         21.42128        9.41707       -8.48694
H         21.11777        9.04285      -10.19076
