73

C         11.44708       -6.06095        0.93161
C         11.61155       -4.54099        1.00473
C         12.06583       -4.04439        2.38199
C         12.24121       -2.52459        2.45866
C         12.63450       -2.01946        3.85050
C         12.80481       -0.49879        3.91801
C         13.09396        0.01583        5.33162
C         13.27094        1.53145        5.42038
O         12.19598        2.29548        4.83758
C         10.93411        2.16972        5.46293
C         10.80707        3.06429        6.70632
C          9.38247        3.05143        7.27894
N          9.22370        4.40386        7.96689
C         10.53352        5.14345        7.79930
C         11.09302        4.57727        6.49340
C         10.43698        5.11517        5.20206
C         10.18938        6.63550        5.09551
C          8.71486        6.98469        4.86179
S          7.60955        6.70707        6.29915
C          6.43856        5.42115        5.73568
S          6.85901        4.29184        4.58356
N          5.26016        5.45846        6.39038
C          4.80637        6.57933        7.23982
C          4.91231        6.31929        8.74292
C          4.29848        4.34500        6.21853
C          4.64677        3.10566        7.04443
N          8.85539        4.23305        9.39510
O          8.73082        5.57404        9.84333
O          7.52981        3.72820        9.28602
H         11.11112       -6.38286       -0.06357
H         10.70677       -6.41850        1.66321
H         12.39525       -6.57658        1.14421
H         10.65720       -4.05327        0.74223
H         12.33754       -4.21121        0.24241
H         13.01631       -4.53674        2.65310
H         11.33329       -4.36648        3.14379
H         11.30177       -2.03310        2.14875
H         13.00228       -2.20646        1.72488
H         13.56938       -2.51081        4.17182
H         11.86536       -2.33258        4.57953
H         11.89384       -0.01318        3.53047
H         13.61798       -0.18421        3.24121
H         14.02347       -0.43484        5.71924
H         12.30189       -0.32386        6.02190
H         14.15151        1.84666        4.84302
H         13.43889        1.83782        6.47068
H         10.71245        1.12349        5.74016
H         10.18841        2.46496        4.70925
H         11.49855        2.69263        7.48030
H          9.20396        2.27128        8.02452
H          8.60243        3.00036        6.50679
H          8.48006        4.99753        7.49420
H         11.16568        4.87649        8.65629
H         10.32536        6.21705        7.81897
H         12.17545        4.76436        6.46862
H          9.46960        4.61137        5.04154
H         11.07014        4.78653        4.36812
H         10.74428        7.04273        4.23718
H         10.57711        7.18785        5.96586
H          8.28858        6.37362        4.05059
H          8.58753        8.04741        4.61829
H          3.76072        6.77369        6.95911
H          5.38473        7.46833        6.96269
H          4.28589        5.47489        9.05795
H          4.56859        7.20891        9.28760
H          5.94696        6.11236        9.04468
H          4.26790        4.09444        5.14961
H          3.31568        4.73799        6.50931
H          5.61806        2.69453        6.74222
H          3.88721        2.33131        6.87523
H          4.67419        3.32990        8.11807
H          9.15317        5.54945       10.72207
H          7.48965        3.06366        9.99875
