50

C          0.18645        3.34552        1.58284
C          1.71454        3.43985        1.56503
C          2.29696        2.85948        0.28796
O          3.74177        2.97273        0.34069
C          4.36930        2.37558       -0.77416
N          5.81220        2.44527       -0.59801
C          6.49715        3.60252       -0.49002
N          5.81437        4.75986       -0.43162
N          7.84955        3.61400       -0.47953
C          8.62892        2.36986       -0.43325
C          8.76121        1.78274        0.97999
O          9.30174        0.49495        0.80369
C          9.62733       -0.16738        2.03310
C         10.21817       -1.52406        1.67318
O         10.51217       -2.18529        2.88666
C         11.10743       -3.46141        2.67754
C          8.54944        4.89619       -0.55828
O          8.25040        5.67833        0.58207
C          9.00527        6.91873        0.60278
C          8.62161        7.69721        1.84262
H         -0.21342        3.75740        2.51787
H         -0.15390        2.30287        1.50875
H         -0.26425        3.90789        0.75265
H          2.14081        2.90009        2.42427
H          2.02968        4.49105        1.65886
H          1.91839        3.39363       -0.60345
H          2.02878        1.79183        0.18348
H          4.08058        2.89331       -1.71038
H          4.10703        1.30787       -0.86789
H          6.32812        1.57445       -0.58215
H          4.83506        4.67014       -0.15343
H          6.33119        5.55073       -0.04046
H          9.62255        2.58275       -0.84488
H          8.19154        1.61599       -1.10685
H          7.77327        1.74662        1.48457
H          9.41761        2.42334        1.60039
H          8.72247       -0.29776        2.65401
H         10.35904        0.42763        2.60812
H         11.12996       -1.38488        1.05947
H          9.49114       -2.10170        1.06760
H         11.29054       -3.89423        3.66732
H         12.06645       -3.37310        2.13623
H         10.43720       -4.12952        2.10734
H          8.24147        5.42656       -1.48165
H          9.62736        4.67644       -0.62150
H          8.78710        7.49186       -0.31650
H         10.08185        6.67192        0.60276
H          7.55554        7.96014        1.83562
H          9.19915        8.63020        1.88154
H          8.83743        7.12214        2.75195
