77

C         12.77209       -0.69302       -6.88707
C         12.07030       -0.61782       -5.52870
C         12.08459        0.78714       -4.91610
C         11.45863        0.85607       -3.51899
C         11.47162        2.26496       -2.91775
C         10.96994        2.32015       -1.47021
C         11.02469        3.73630       -0.88156
C         10.74836        3.75688        0.61028
O         10.85911        5.13112        1.06818
C         10.95045        5.26562        2.44074
N         11.40431        6.66100        2.72307
C         11.48093        7.59509        1.76662
C         11.92060        8.86842        2.10986
C         12.29132        9.13155        3.42731
C         12.13811        8.07317        4.38167
N         11.69777        6.86654        4.00541
Si        12.45047        8.17639        6.30096
C         14.21185        8.75313        6.62601
C         11.16864        9.36613        6.99563
C         12.19281        6.45315        6.98779
C         12.86321       10.46464        3.80374
C         14.38292       10.56966        3.48682
C         14.71916       11.01888        2.05950
S         14.24646       12.74858        1.77121
C         13.11581       12.68026        0.37084
S         12.66216       11.25795       -0.39403
N         12.68683       13.90103       -0.00847
C         13.11280       15.15615        0.63731
C         12.17368       15.60670        1.75877
C         11.73907       14.05851       -1.12892
C         12.43967       14.24538       -2.47434
H         12.73610       -1.70903       -7.30284
H         13.83109       -0.40589       -6.80473
H         12.30361       -0.01808       -7.61878
H         12.54979       -1.32249       -4.82806
H         11.02623       -0.95860       -5.63106
H         11.55901        1.48539       -5.59120
H         13.12701        1.14873       -4.86208
H         12.00172        0.16912       -2.84615
H         10.42086        0.48188       -3.55905
H         10.86382        2.93969       -3.54514
H         12.50038        2.66440       -2.95335
H         11.58514        1.64146       -0.85378
H          9.93900        1.93173       -1.41577
H         10.30138        4.39000       -1.39436
H         12.02355        4.16947       -1.05324
H         11.48664        3.14129        1.15586
H          9.73874        3.37885        0.84892
H         11.70483        4.60126        2.89869
H          9.98686        5.13748        2.96949
H         11.19396        7.28210        0.76471
H         11.99328        9.64060        1.33125
H         14.37739        9.81100        6.38906
H         14.94607        8.15332        6.07185
H         14.42262        8.62058        7.69736
H         11.26345       10.38880        6.60906
H         11.28003        9.41290        8.08873
H         10.15165        9.01099        6.78090
H         12.90209        5.73370        6.55738
H         11.17649        6.08463        6.79919
H         12.35127        6.47345        8.07558
H         12.70611       10.64927        4.87221
H         12.33966       11.26482        3.25700
H         14.87472        9.60181        3.67220
H         14.82617       11.27428        4.20564
H         14.21505       10.43366        1.27021
H         15.80204       10.95346        1.89069
H         13.16086       15.91697       -0.15476
H         14.13999       15.03315        1.00744
H         11.14967       15.75342        1.39016
H         12.52168       16.56244        2.17236
H         12.14656       14.87159        2.57317
H         11.11200       14.92987       -0.89038
H         11.09699       13.16947       -1.14695
H         13.09692       15.12565       -2.47286
H         11.68932       14.38902       -3.26316
H         13.03840       13.36154       -2.72707
