62

C          0.75195       -1.21691       -0.31862
C          2.18019       -0.79042        0.02894
C          2.78339        0.18324       -0.98946
C          4.20373        0.63885       -0.64102
C          4.80016        1.60620       -1.66842
C          6.20534        2.09744       -1.30634
C          6.78787        3.06793       -2.33878
C          8.17597        3.59722       -1.96221
C          8.71816        4.60252       -2.98401
C         10.09990        5.13321       -2.57731
N         10.56047        6.23295       -3.43906
C         10.66079        7.50277       -3.12978
C         11.26366        8.29672       -4.26684
C         11.23114        7.29456       -5.44680
C         11.09672        5.92142       -4.78800
C         10.54040        9.62997       -4.53441
C         11.18289       10.43657       -5.67181
C         10.47038       11.76813       -5.86337
Br        11.27876       12.79849       -7.32102
C         10.26604        8.09072       -1.85087
C         11.14962        8.99494       -1.22306
C         10.80219        9.58308       -0.01012
C          9.55802        9.31362        0.57037
C          8.66422        8.44303       -0.06008
C          9.01516        7.82350       -1.25757
H          0.34906       -1.91876        0.42432
H          0.70961       -1.71283       -1.29968
H          0.07484       -0.35055       -0.35740
H          2.82482       -1.68267        0.10284
H          2.19410       -0.32505        1.02916
H          2.12867        1.06871       -1.07743
H          2.78526       -0.28968       -1.98752
H          4.85954       -0.24441       -0.54710
H          4.19959        1.11860        0.35356
H          4.12973        2.47653       -1.78097
H          4.82689        1.11726       -2.65806
H          6.88134        1.23232       -1.19337
H          6.17596        2.58998       -0.31863
H          6.09715        3.91964       -2.46790
H          6.84119        2.56965       -3.32206
H          8.88060        2.75444       -1.86170
H          8.12983        4.07685       -0.96899
H          8.01846        5.44881       -3.08153
H          8.77270        4.13069       -3.97781
H         10.85648        4.33717       -2.65241
H         10.09292        5.49968       -1.54336
H         12.31110        8.51980       -3.98265
H         12.11904        7.36201       -6.08364
H         10.35272        7.49926       -6.07517
H         12.05841        5.40188       -4.64939
H         10.41411        5.23867       -5.30835
H         10.53862       10.23186       -3.61351
H          9.48355        9.41805       -4.76976
H         11.15293        9.87333       -6.61666
H         12.24593       10.61919       -5.44656
H         10.53895       12.40692       -4.97546
H          9.41683       11.64243       -6.13768
H         12.12135        9.21110       -1.66839
H         11.50145       10.25881        0.48217
H          9.28172        9.79046        1.51101
H          7.68613        8.24889        0.37973
H          8.29692        7.17251       -1.75471
