62

N          1.35983        0.39472       -1.36190
C          2.80546        0.35585       -1.15344
C          3.27273       -1.09578       -0.99040
C          4.79868       -1.19568       -0.86130
C          5.22717       -2.65016       -0.68341
S          7.04667       -2.87112       -0.71776
C          7.55583       -2.18117        0.89972
C          9.07630       -2.12081        1.07654
C          9.76816       -0.95148        0.36319
S          9.27124        0.66482        1.02471
C          8.22564        1.32870       -0.24736
S          7.94755        0.63922       -1.72095
N          7.67257        2.54711        0.14058
C          6.91556        3.40329       -0.67959
N          6.52866        4.46694       -0.03743
C          7.03235        4.34014        1.25541
C          7.73805        3.18134        1.39297
C          7.22170       -4.66900       -0.41199
C          6.68098       -5.52343       -1.55634
C          6.99358       -7.01007       -1.30514
N          6.21172       -7.84433       -2.19979
C          6.33886       -9.28477       -1.90076
C          5.47921      -10.13200       -2.80642
C          4.38657      -10.85421       -2.31223
C          3.60655      -11.66449       -3.14081
C          3.91700      -11.75671       -4.49901
C          4.99683      -11.04177       -5.02072
C          5.76932      -10.23678       -4.17922
O          6.84353       -9.50787       -4.65099
H          1.06177        1.31679       -1.67830
H          0.85672        0.20607       -0.49429
H          3.16110        0.95014       -0.28573
H          3.28563        0.78765       -2.04557
H          2.92293       -1.67409       -1.85958
H          2.78994       -1.53734       -0.10171
H          5.13695       -0.58752       -0.00783
H          5.27686       -0.77175       -1.75767
H          4.87872       -3.26855       -1.52358
H          4.86246       -3.09483        0.25515
H          7.07156       -2.80012        1.66760
H          7.12173       -1.17135        0.93072
H          9.55287       -3.06144        0.75667
H          9.26038       -2.05374        2.15962
H          9.55794       -0.92020       -0.71896
H         10.85463       -1.00978        0.50941
H          6.72874        3.15394       -1.71874
H          6.84917        5.10079        2.00816
H          8.25781        2.74739        2.23810
H          6.71905       -4.88788        0.54205
H          8.30524       -4.81292       -0.28210
H          7.11739       -5.20299       -2.51588
H          5.58933       -5.42448       -1.63736
H          6.70353       -7.26978       -0.27182
H          8.09372       -7.17005       -1.36935
H          6.50413       -7.69665       -3.16886
H          6.01633       -9.43874       -0.85939
H          7.39375       -9.62447       -1.96865
H          4.15105      -10.78121       -1.24816
H          2.76528      -12.22133       -2.72912
H          3.32070      -12.38632       -5.16011
H          5.24371      -11.10941       -6.08377
H          6.96960       -9.71331       -5.59180
