103

C          0.77707        0.84345       -1.71434
C          2.29257        0.74443       -1.52038
C          2.86571        1.85537       -0.63283
C          4.38217        1.76651       -0.43265
C          4.95156        2.87830        0.45497
C          6.46832        2.79334        0.65640
C          7.03210        3.91114        1.54009
C          8.54997        3.83996        1.73960
C          9.10123        4.96956        2.61591
C         10.62219        4.93515        2.79900
C         11.15634        6.09606        3.64498
C         12.67907        6.09339        3.81636
C         13.20194        7.28959        4.61901
C         14.72756        7.32253        4.75845
C         15.24298        8.54981        5.51829
C         16.76959        8.59441        5.64549
C         17.28103        9.84476        6.36925
C         18.80851        9.88085        6.50242
C         19.30577       11.13968        7.22371
C         20.82893       11.11013        7.39472
N         21.33047       12.28835        8.12471
N         21.46082       12.32036        9.43153
N         21.78604       13.55127        9.78459
C         21.84848       14.29947        8.66919
N         21.54780       13.52148        7.60330
C         21.63916       13.79400        6.15287
C         23.06011       13.53334        5.61630
C         23.10172       13.77129        4.12430
C         23.30795       15.06106        3.61403
C         23.31775       15.28315        2.23582
C         23.11828       14.21758        1.35337
C         22.90989       12.92938        1.85298
C         22.90018       12.70892        3.23186
C         22.13827       15.75225        8.65044
C         20.83766       16.55492        8.34698
O         20.07602       16.16358        7.46352
N         20.67627       17.67167        9.08324
C         19.53110       18.57678        8.92742
C         18.54900       18.51488       10.10271
C         19.13218       18.96911       11.44712
C         18.08973       19.00860       12.56754
H          0.39712        0.03437       -2.35350
H          0.49627        1.79773       -2.18490
H          0.24651        0.78317       -0.75216
H          2.79279        0.77171       -2.50345
H          2.54501       -0.23603       -1.08188
H          2.36516        1.82832        0.35147
H          2.61208        2.83722       -1.07090
H          4.88204        1.79410       -1.41713
H          4.63524        0.78471        0.00522
H          4.45139        2.85069        1.43927
H          4.69732        3.85980        0.01695
H          6.96887        2.81886       -0.32777
H          6.72383        1.81400        1.09821
H          6.53348        3.88313        2.52515
H          6.77015        4.88941        1.09933
H          9.04870        3.86625        0.75452
H          8.81614        2.86551        2.18577
H          8.61398        4.93353        3.60635
H          8.81311        5.94093        2.17604
H         11.10922        4.95297        1.80796
H         10.91586        3.97654        3.26183
H         10.67647        6.07497        4.63936
H         10.84703        7.05052        3.18311
H         13.15683        6.08785        2.82064
H         12.99319        5.15512        4.30640
H         12.74252        7.28652        5.62307
H         12.86292        8.22339        4.13640
H         15.18528        7.29899        3.75371
H         15.07043        6.40481        5.26778
H         14.79173        8.57407        6.52564
H         14.89340        9.46518        5.00892
H         17.22142        8.54521        4.63926
H         17.11944        7.69367        6.17933
H         16.82793        9.89935        7.37402
H         16.93915       10.74579        5.83109
H         19.26741        9.82216        5.50023
H         19.14925        8.98569        7.05022
H         18.84540       11.21516        8.22106
H         19.00553       12.04084        6.66470
H         21.36239       11.05712        6.43621
H         21.14939       10.26024        8.01050
H         21.31414       14.83414        6.03208
H         20.89337       13.16791        5.64879
H         23.36166       12.49951        5.84493
H         23.77045       14.19546        6.13424
H         23.47430       15.89736        4.29759
H         23.48910       16.28839        1.85001
H         23.13249       14.39000        0.27702
H         22.76429       12.09311        1.16879
H         22.75362       11.69621        3.61599
H         22.86228       16.00026        7.85984
H         22.58842       16.00824        9.61747
H         21.34765       17.87172        9.81722
H         19.03856       18.29054        7.99052
H         19.92425       19.59836        8.80711
H         18.15058       17.49032       10.18657
H         17.69273       19.15783        9.84136
H         19.58075       19.97035       11.32709
H         19.95452       18.29686       11.74937
H         17.27399       19.70506       12.32592
H         18.53568       19.33485       13.51611
H         17.64198       18.01793       12.73315
