71

C          0.31099       -1.75848       -0.75928
C          1.41467       -0.78094       -1.09186
O          2.47120       -1.52849       -1.79635
C          3.67444       -0.93939       -1.87485
O          3.95401        0.14191       -1.39752
C          4.69327       -1.75967       -2.69252
C          5.10453       -0.81136       -3.85871
C          6.12385       -1.31773       -4.90115
C          7.57333       -0.92856       -4.58596
S          8.75009       -1.46859       -5.85333
C          9.17202       -3.11383       -5.33696
S          8.61731       -3.80441       -3.89318
N         10.01447       -3.75574       -6.16650
C         10.53730       -3.19856       -7.42511
C         10.28352       -4.18868       -8.56788
O         10.84189       -5.46425       -8.28758
C         10.28252       -6.00928       -7.09722
C         10.53530       -5.10448       -5.89085
C          4.11603       -3.09835       -3.23222
N          5.20748       -4.05466       -3.00460
C          6.20413       -3.58225       -2.31503
C          5.91195       -2.21834       -1.79341
C          5.64638       -2.39872       -0.26208
C          6.02427       -1.15891        0.55870
C          6.07247       -1.35732        2.07499
C          4.74755       -1.17236        2.91427
C          3.49476       -2.11215        2.71169
C          3.55926       -3.67379        2.93244
C          3.97766       -4.29846        4.32274
C          3.13098       -3.93416        5.60000
F          1.81737       -4.10483        5.36716
F          3.50760       -4.74946        6.59762
F          3.34976       -2.66351        5.97506
F          3.87678       -5.64278        4.14744
F          5.27290       -3.99109        4.57008
F          2.31626       -4.13185        2.62900
F          4.42396       -4.19189        2.01042
F          2.51493       -1.63029        3.51189
F          3.07873       -1.95357        1.41094
F          5.07826       -1.21597        4.22663
F          4.28322        0.08028        2.62741
F          6.62262       -2.57225        2.39954
F          6.90748       -0.39526        2.58529
H         -0.50682       -1.22175       -0.26005
H          0.66473       -2.54230       -0.07706
H         -0.09822       -2.22930       -1.66270
H          1.85995       -0.31841       -0.20315
H          1.08225        0.01898       -1.76840
H          5.45869        0.12629       -3.40497
H          4.17246       -0.54802       -4.38316
H          5.85981       -0.87985       -5.87407
H          6.06510       -2.40706       -5.04315
H          7.93914       -1.33426       -3.63347
H          7.69218        0.16520       -4.56923
H         11.61853       -3.02232       -7.30455
H         10.05391       -2.24089       -7.65046
H         10.76428       -3.82621       -9.48572
H          9.19336       -4.27473       -8.74746
H         10.76507       -6.98291       -6.94029
H          9.19360       -6.16898       -7.22445
H         11.61740       -5.02126       -5.69852
H         10.04444       -5.49255       -4.99177
H          3.86748       -3.05814       -4.30138
H          3.22609       -3.43211       -2.68401
H          5.18668       -5.00857       -3.36419
H          7.01057       -4.22863       -1.97819
H          6.77658       -1.55423       -1.91959
H          6.24713       -3.24495        0.10284
H          4.59915       -2.68903       -0.11811
H          5.37362       -0.30571        0.33129
H          7.05039       -0.85744        0.29840
