111

C          0.19033       -0.26436       -0.79655
C          1.66410       -0.09850       -0.41823
C          2.17501       -1.18044        0.53966
C          3.65013       -1.01657        0.91817
C          4.16852       -2.08990        1.88062
C          5.64318       -1.90967        2.25400
C          6.17658       -2.97095        3.22151
C          7.65088       -2.76911        3.58505
C          8.20728       -3.82279        4.54815
C          9.68835       -3.61019        4.87391
C         10.28005       -4.67695        5.80006
C         11.79391       -4.46990        6.02597
C         12.45564       -5.59669        6.78832
C         12.62873       -5.38753        8.15327
C         13.17764       -6.32877        9.04064
C         13.57929       -7.57320        8.60081
C         13.40755       -7.84739        7.19965
C         12.86203       -6.86811        6.25987
C         12.77726       -7.27677        4.87333
C         13.15777       -8.55360        4.51994
N         13.64586       -9.42918        5.43982
C         13.78333       -9.11174        6.72822
C         12.35524       -6.43202        3.69237
C         13.49207       -5.55572        3.11943
O         14.73127       -6.27518        2.83658
C         14.74218       -7.28972        1.93261
O         13.76256       -7.72221        1.35660
C         16.14213       -7.84430        1.77165
S         16.47645       -9.17197        2.99517
C         12.99691       -4.76378        1.90650
O         13.94640       -3.75228        1.52098
C         13.91549       -2.60910        2.26734
O         13.11607       -2.40806        3.16139
C         15.02331       -1.66893        1.86226
S         16.49682       -1.98107        2.90854
C         14.17304       -8.60802        9.53439
C         14.52923       -8.12068       10.94441
C         15.20406       -9.23934       11.74426
S         15.84962       -8.55430       13.29741
C         15.96831      -10.02481       14.32499
S         15.44561      -11.52825       13.86367
N         16.55439       -9.74221       15.52879
C         16.87861       -8.39330       15.93140
C         18.22019       -7.99761       15.98911
C         18.53864       -6.70454       16.40387
C         17.52417       -5.81122       16.76338
C         16.18704       -6.21473       16.71550
C         15.85946       -7.50816       16.30502
C         16.92347      -10.78386       16.46062
C         16.31149      -10.82218       17.71610
C         16.70915      -11.78447       18.64716
C         17.71405      -12.69991       18.32528
C         18.32544      -12.65138       17.06810
C         17.93558      -11.69261       16.13329
H         -0.14169        0.52792       -1.48151
H         -0.45715       -0.22693        0.09231
H          0.01101       -1.22944       -1.29368
H          1.81709        0.89265        0.04179
H          2.28208       -0.10358       -1.33232
H          2.02238       -2.17398        0.08174
H          1.55922       -1.17494        1.45659
H          3.80057       -0.02047        1.37089
H          4.26427       -1.02412        0.00015
H          4.02404       -3.08734        1.42901
H          3.55562       -2.08392        2.79918
H          5.78493       -0.90925        2.69963
H          6.25445       -1.91687        1.33405
H          6.04232       -3.97301        2.77688
H          5.56803       -2.96610        4.14278
H          7.78274       -1.76672        4.02846
H          8.25590       -2.76877        2.66078
H          8.06963       -4.82772        4.11026
H          7.61859       -3.81779        5.48178
H          9.83044       -2.61445        5.32713
H         10.26914       -3.58341        3.93425
H         10.08832       -5.68101        5.38291
H          9.76723       -4.66772        6.77565
H         11.93217       -3.54955        6.61142
H         12.28959       -4.26074        5.07088
H         12.31938       -4.42230        8.55890
H         13.28161       -6.05766       10.09036
H         13.11016       -8.91624        3.49595
H         13.95124      -10.34553        5.11385
H         14.19202       -9.88433        7.37412
H         11.52942       -5.76258        3.94595
H         11.99002       -7.09787        2.90170
H         13.82776       -4.84483        3.88579
H         16.90795       -7.06659        1.86016
H         16.21225       -8.32853        0.79142
H         16.74506       -8.34733        4.03507
H         12.03781       -4.29108        2.16081
H         12.87472       -5.40599        1.02835
H         14.69346       -0.63038        1.96860
H         15.34883       -1.85756        0.83312
H         15.95200       -1.51068        4.05567
H         15.09382       -9.01504        9.08265
H         13.47715       -9.46263        9.61654
H         13.63038       -7.78573       11.48411
H         15.20152       -7.25025       10.86901
H         16.04023       -9.68304       11.18273
H         14.51362      -10.05604       12.00667
H         19.00117       -8.70530       15.71038
H         19.58276       -6.39329       16.44787
H         17.77771       -4.80227       17.09009
H         15.39541       -5.52473       17.00936
H         14.82136       -7.83964       16.27047
H         15.52948      -10.10299       17.96014
H         16.23019      -11.81746       19.62614
H         18.02371      -13.44942       19.05410
H         19.11375      -13.36108       16.81509
H         18.40359      -11.64862       15.15011
