61

C          1.84188       -1.13558        0.65102
O          3.23237       -0.98534        0.38610
C          3.54365       -1.12806       -0.98494
C          5.05333       -0.97852       -1.11460
O          5.37912       -1.12048       -2.50320
C          6.75931       -1.08861       -2.76536
C          6.88246       -1.16769       -4.29155
N          8.27025       -1.34235       -4.73622
C          9.11001       -0.30564       -5.10510
C         10.30795       -0.85958       -5.43975
N         10.18130       -2.22746       -5.28805
C          8.93681       -2.51728       -4.83517
C          8.40732       -3.87439       -4.53225
C          9.00250       -4.51885       -3.25796
C          8.51378       -5.97017       -3.09111
S          9.79095       -7.10191       -2.48193
C         10.73428       -7.40347       -3.93698
S         10.32405       -6.97616       -5.47997
N         11.88892       -8.13614       -3.64478
C         12.59866       -8.17333       -2.43445
N         13.64833       -8.94279       -2.51647
C         13.64206       -9.45470       -3.80874
C         12.58993       -8.96133       -4.52724
C         11.28937       -3.16894       -5.39217
C         12.11036       -3.16395       -4.06539
O         11.82234       -2.33729       -3.21103
C         13.17472       -4.17326       -3.90186
C         13.86961       -4.19652       -2.67427
C         14.86345       -5.14224       -2.45434
C         15.18079       -6.06983       -3.45531
C         14.50714       -6.04633       -4.68030
C         13.50434       -5.10582       -4.90492
H          1.70863       -1.00380        1.73067
H          1.48333       -2.13986        0.36089
H          1.24391       -0.37599        0.11636
H          3.03459       -0.35803       -1.59839
H          3.23094       -2.12077       -1.36694
H          5.56397       -1.75603       -0.51714
H          5.37443        0.01062       -0.74143
H          7.28419       -1.94408       -2.29142
H          7.23364       -0.16169       -2.38614
H          6.49771       -0.25246       -4.75694
H          6.27636       -2.00212       -4.66551
H          8.78130        0.72627       -5.10360
H         11.23344       -0.40140       -5.76488
H          8.62619       -4.53803       -5.38477
H          7.31337       -3.81761       -4.45474
H          8.75177       -3.91967       -2.37168
H         10.09564       -4.51570       -3.32158
H          8.16035       -6.39239       -4.04310
H          7.70545       -6.05602       -2.35234
H         12.30621       -7.56663       -1.58266
H         14.40171      -10.15691       -4.13769
H         12.24169       -9.12010       -5.53956
H         11.92419       -2.86725       -6.23669
H         10.90012       -4.17338       -5.61116
H         13.60687       -3.46403       -1.91106
H         15.39347       -5.16734       -1.50216
H         15.94854       -6.82196       -3.27328
H         14.75472       -6.77210       -5.45387
H         12.98096       -5.11614       -5.86098
