41

C          5.50806        2.42440        2.36865
C          6.49779        2.14493        1.72576
C          7.65155        1.79489        0.90509
C          7.31526        0.81274       -0.24009
C          6.15129        1.24769       -1.13423
N          6.39076        2.50616       -1.84866
N          7.07491        2.50132       -3.04924
C          7.09256        3.74016       -3.46734
N          6.43627        4.56084       -2.53392
C          6.00674        3.74709       -1.51999
N          5.29397        4.17177       -0.47082
N          6.11657        5.92684       -2.49822
C          5.08571        6.29335       -3.48345
C          7.29447        6.80596       -2.47250
C          7.78430        4.19691       -4.70536
C          9.29776        4.41121       -4.48352
C          9.99507        4.92916       -5.75675
C         11.41783        5.14781       -5.54330
C         12.59544        5.31518       -5.32552
H          4.66773        2.63787        2.99852
H          8.42515        1.34586        1.54705
H          8.10347        2.71717        0.50204
H          7.04258       -0.16418        0.18432
H          8.21410        0.65770       -0.85357
H          5.22762        1.37553       -0.55138
H          5.96061        0.49571       -1.90946
H          5.20114        5.18453       -0.41123
H          5.31011        3.63256        0.40289
H          4.23467        5.60876       -3.38923
H          5.44886        6.28399       -4.52573
H          4.74361        7.30727       -3.24309
H          8.00009        6.44380       -1.71582
H          6.95343        7.80540       -2.17669
H          7.80924        6.88836       -3.44481
H          7.31576        5.11679       -5.08171
H          7.62707        3.42342       -5.47083
H          9.75477        3.46089       -4.17443
H          9.46923        5.12475       -3.66457
H          9.52431        5.87114       -6.08765
H          9.85168        4.20952       -6.58053
H         13.64142        5.46583       -5.15844
