49

C          0.79773        1.66625        0.73512
C          2.30710        1.79871        0.95374
C          2.92473        0.52192        1.54280
C          4.43807        0.65653        1.73363
S          5.03977       -0.94281        2.40467
C          6.74094       -0.72718        2.47255
N          7.62135       -1.64096        2.84924
N          8.85908       -1.04862        2.77624
C          8.65625        0.15957        2.34508
O          7.34826        0.46658        2.12273
N          9.58813        1.17517        2.11813
N          9.29551        2.45313        2.37541
N         10.27646        3.19130        1.93771
C         11.21973        2.38197        1.38971
N         10.80687        1.09112        1.48101
C         11.63670       -0.13982        1.29094
C         12.05777       -0.68628        2.67551
O         12.63912        0.33141        3.47636
C         11.00588       -1.15771        0.32549
C         12.06965       -2.05200       -0.32168
C         12.44498        2.88195        0.78467
C         12.93790        2.37509       -0.43424
C         14.08593        2.92740       -0.99623
C         14.74819        3.97789       -0.35177
C         14.25157        4.49200        0.85033
C         13.09770        3.95745        1.41722
H          0.37630        2.59382        0.32662
H          0.27401        1.44853        1.67678
H          0.56526        0.85611        0.02909
H          2.51363        2.64727        1.62634
H          2.80173        2.03502       -0.00292
H          2.71222       -0.33107        0.87738
H          2.44791        0.29257        2.50966
H          4.69105        1.45323        2.44603
H          4.94723        0.84766        0.77961
H         12.53301        0.28614        0.81814
H         12.74588       -1.52648        2.49606
H         11.18304       -1.07778        3.21071
H         13.60021        0.34175        3.34874
H         10.46455       -0.60473       -0.45820
H         10.26642       -1.77248        0.85466
H         12.81735       -1.46115       -0.87033
H         11.59799       -2.73771       -1.03574
H         12.59833       -2.66810        0.41760
H         12.39771        1.59277       -0.97005
H         14.45513        2.55034       -1.94979
H         15.64568        4.40746       -0.79733
H         14.76152        5.31827        1.34533
H         12.69815        4.35769        2.34867
