60

C          0.61460        0.42228        0.53188
C          2.12634        0.51428        0.30398
C          2.78667        1.45051        1.29889
O          4.22505        1.45486        1.01008
C          4.99234        2.23035        1.78468
O          4.60404        2.94129        2.69292
C          6.45850        2.08952        1.38593
C          7.29236        3.26906        1.90788
N          8.73660        3.00223        1.74965
C          9.44681        3.41838        0.69655
N         10.74824        3.07575        0.57576
N          8.86651        4.17135       -0.24470
C          7.44149        4.56543       -0.21914
C          6.97288        4.62702        1.25034
C          7.55146        5.83102        2.02124
C          7.14762        5.91926        3.49995
C          7.65509        7.23609        4.09434
S          7.23852        7.32165        5.85831
C          8.26764        8.65063        6.40628
S          9.19509        9.59782        5.43576
N          8.18079        8.82587        7.79374
C          7.66805        7.93690        8.74869
N          7.76042        8.41824        9.95794
C          8.34505        9.67348        9.81837
C          8.62120        9.94342        8.50877
C          7.26619        5.85230       -1.02801
C          5.78659        6.14871       -1.25143
O          4.90356        5.31900       -1.15057
O          5.60873        7.43537       -1.59015
C          4.23900        7.82399       -1.88871
H          0.15633       -0.26315       -0.19205
H          0.12725        1.40098        0.41539
H          0.37858        0.04798        1.53828
H          2.33617        0.86991       -0.71651
H          2.58424       -0.48293        0.39291
H          2.64647        1.12340        2.33973
H          2.41820        2.48317        1.21147
H          6.53578        1.96163        0.29752
H          6.82911        1.15066        1.82870
H          7.10830        3.35273        2.98617
H          9.20968        2.45727        2.46249
H         11.21927        2.56834        1.31405
H         11.34010        3.52797       -0.10965
H          9.41216        4.40726       -1.06755
H          6.85505        3.78775       -0.73302
H          5.87812        4.71296        1.23038
H          7.20726        6.74957        1.52273
H          8.65265        5.84883        1.94944
H          7.57182        5.08167        4.07564
H          6.05306        5.84126        3.59508
H          7.20994        8.10556        3.58982
H          8.74748        7.33400        4.01072
H          7.28434        6.95782        8.47717
H          8.52781       10.30635       10.68123
H          9.06307       10.78983        7.99925
H          7.71388        5.72380       -2.02919
H          7.76457        6.71768       -0.57305
H          4.28811        8.89379       -2.10617
H          3.59405        7.62875       -1.02371
H          3.86932        7.26513       -2.75719
