69

C          1.25648        0.25678        0.26165
O          2.62269        0.48724       -0.05199
C          3.06840       -0.30207       -1.13880
C          4.53159        0.04067       -1.38069
O          4.98736       -0.78084       -2.45395
C          6.34525       -0.56868       -2.78396
C          6.67164       -1.56123       -3.89072
O          8.02087       -1.34236       -4.31002
C          8.43185       -2.25903       -5.29933
C          9.84329       -1.82532       -5.70844
C         10.57317       -2.48837       -6.88190
N         11.08961       -3.91585       -6.60467
C          9.99925       -4.96908       -6.65779
C          9.27921       -4.89839       -8.00970
N          8.81262       -3.57499       -8.37339
C          9.83079       -2.55605       -8.25596
C          9.36178       -1.13017       -8.57613
O         10.15177       -0.22877       -8.76497
O          8.02828       -1.02357       -8.54852
C          7.47831        0.32506       -8.76089
C          5.98802        0.24746       -8.52167
C         11.95789       -4.04841       -5.37799
C         13.21528       -3.17377       -5.44923
O         14.08768       -3.66869       -4.47512
Si        15.63674       -3.01202       -4.17447
C         16.63404       -3.09286       -5.76375
C         15.43742       -1.23377       -3.60834
C         16.32983       -4.11915       -2.84315
H          1.00944        0.90382        1.11139
H          1.07808       -0.79708        0.54477
H          0.59789        0.50985       -0.58962
H          2.47692       -0.09420       -2.05268
H          2.96963       -1.38304       -0.91535
H          5.12098       -0.15102       -0.46439
H          4.63566        1.11203       -1.63569
H          7.00430       -0.74139       -1.91070
H          6.52031        0.46647       -3.13792
H          5.97729       -1.41704       -4.74002
H          6.54399       -2.59457       -3.51758
H          7.73398       -2.23127       -6.15762
H          8.40985       -3.28986       -4.88913
H         10.48160       -1.84397       -4.81235
H          9.78380       -0.75931       -5.97763
H         11.48844       -1.90454       -7.05368
H         11.71167       -4.11459       -7.40529
H          9.32694       -4.78051       -5.81329
H         10.49007       -5.94057       -6.50955
H          8.43319       -5.59767       -7.99579
H          9.96722       -5.25915       -8.79764
H          7.92568       -3.30898       -7.95165
H         10.60855       -2.77199       -9.01471
H          7.72849        0.62778       -9.78684
H          7.98802        1.00799       -8.06736
H          5.50615       -0.45020       -9.21873
H          5.54543        1.24064       -8.67611
H          5.76360       -0.06494       -7.49289
H         12.26935       -5.10012       -5.32465
H         11.34522       -3.82561       -4.49662
H         12.96724       -2.10886       -5.27927
H         13.65002       -3.24817       -6.47162
H         16.21152       -2.46167       -6.55881
H         16.70939       -4.12239       -6.14037
H         17.65678       -2.73221       -5.58050
H         14.99553       -0.59357       -4.38539
H         16.42023       -0.80658       -3.36175
H         14.81124       -1.16698       -2.70775
H         16.40563       -5.15877       -3.18967
H         15.69981       -4.10147       -1.94350
H         17.33696       -3.78609       -2.55503
