50

C          5.66497       -1.29536       -4.04701
C          5.38118       -2.35904       -2.98364
C          6.37031       -2.32268       -1.81238
C          6.10305       -3.40716       -0.76221
C          7.08081       -3.35247        0.42159
C          6.82808       -4.48817        1.39715
O          7.82168       -4.44570        2.49298
C          7.39849       -4.08314        3.70902
O          6.27872       -3.80617        4.06325
C          8.54116       -4.10691        4.73106
N          9.93916       -4.16919        4.11542
C         10.47502       -2.78260        3.76017
C         10.81439       -1.80706        4.93769
F          9.66764       -1.35290        5.50456
F         11.54365       -2.44936        5.89091
F         11.57933       -2.96564        3.01085
F          9.53536       -2.19422        2.99547
C         10.83794       -5.15865        4.89638
C         10.29374       -6.52553        4.42608
O          9.82539       -6.65357        3.30648
O         10.47189       -7.45747        5.34396
C         10.10650       -8.84994        4.97471
C          8.64612       -9.12029        5.26825
C         12.33730       -5.12709        4.59457
H          4.92699       -1.33557       -4.85912
H          6.65938       -1.43499       -4.49693
H          5.63422       -0.28163       -3.62057
H          5.40444       -3.35976       -3.44736
H          4.35700       -2.22964       -2.59540
H          6.33186       -1.32872       -1.33303
H          7.39887       -2.43453       -2.19870
H          6.16203       -4.39909       -1.24240
H          5.07001       -3.30917       -0.38795
H          6.97733       -2.38988        0.94799
H          8.11788       -3.41203        0.05323
H          6.98140       -5.47225        0.93569
H          5.83041       -4.44149        1.85108
H          8.42028       -5.00908        5.34383
H          8.46287       -3.23630        5.38757
H          9.78721       -4.66624        3.19474
H         11.39212       -0.96030        4.53248
H         10.64494       -4.98684        5.96137
H         10.77682       -9.45029        5.59963
H         10.35695       -8.98915        3.91574
H          8.40762       -8.92629        6.32176
H          8.43732      -10.17993        5.06642
H          7.98520       -8.52325        4.62698
H         12.54735       -5.31024        3.53414
H         12.78569       -5.94323        5.17637
H         12.81466       -4.19688        4.91202
