81

C          0.71466       -0.20761       -0.13008
C          2.24424       -0.17766       -0.07733
C          2.80884        1.10260        0.54839
C          4.33950        1.13839        0.59509
C          4.91253        2.41649        1.21596
C          6.44391        2.44590        1.24448
C          7.03103        3.72470        1.85063
C          8.56292        3.74274        1.86276
C          9.16623        5.02183        2.45218
C         10.69828        5.01694        2.47094
C         11.31618        6.29406        3.04944
C         12.84651        6.25285        3.11368
C         13.47488        7.52744        3.68682
C         14.99490        7.43266        3.85241
C         15.63020        8.70876        4.41713
C         17.12221        8.53833        4.73039
C         17.85066        9.81958        5.17737
C         17.22156       10.43501        6.41786
N         18.07153       11.62833        6.92452
C         17.28877       12.62293        7.82477
C         16.77851       11.99254        9.11088
C         16.24183       13.04991       10.09371
C         14.99729       13.81192        9.59792
N         14.43202       14.66348       10.62227
C         14.87941       15.93047       10.94686
C         14.18696       16.35532       12.06369
C         13.29670       15.30943       12.43730
C         13.47153       14.27639       11.53776
C         19.26393       11.20193        7.52250
C         20.27963       10.82902        8.04689
H          0.34469       -1.13672       -0.58537
H          0.31859        0.63197       -0.72078
H          0.27843       -0.13553        0.87755
H          2.65020       -0.29054       -1.09710
H          2.61119       -1.04999        0.48988
H          2.40820        1.21525        1.57161
H          2.43960        1.97724       -0.01622
H          4.73666        1.02328       -0.42910
H          4.70741        0.26296        1.15908
H          4.52461        2.52998        2.24375
H          4.54094        3.29274        0.65582
H          6.82799        2.32298        0.21631
H          6.81456        1.57201        1.80898
H          6.65513        3.84759        2.88180
H          6.65918        4.59948        1.28842
H          8.93569        3.60748        0.83209
H          8.93211        2.87110        2.43164
H          8.78919        5.16431        3.48044
H          8.80886        5.89393        1.87668
H         11.07533        4.86301        1.44462
H         11.05054        4.14740        3.05355
H         10.91509        6.46628        4.06407
H         10.99565        7.16217        2.44696
H         13.25241        6.06834        2.10386
H         13.15862        5.38838        3.72582
H         13.01819        7.74774        4.66838
H         13.22534        8.38483        3.03741
H         15.46212        7.19391        2.88183
H         15.23287        6.58534        4.51879
H         15.07847        8.99612        5.33047
H         15.49185        9.53805        3.70080
H         17.64467        8.15983        3.83873
H         17.25169        7.76406        5.50514
H         17.83399       10.55920        4.35708
H         18.90574        9.57905        5.38293
H         17.16198        9.73282        7.25823
H         16.22745       10.85728        6.22320
H         18.32583       12.16217        6.07601
H         16.48619       12.99906        7.17614
H         17.99982       13.43632        8.02533
H         17.60325       11.44905        9.59715
H         15.98717       11.25910        8.89067
H         17.03638       13.76983       10.34535
H         15.98147       12.53945       11.03147
H         14.22060       13.09985        9.27627
H         15.23466       14.44308        8.72585
H         15.63837       16.42462       10.34818
H         14.29698       17.31987       12.54836
H         12.59167       15.31843       13.26183
H         12.98553       13.30912       11.45766
H         21.19092       10.50068        8.50830
