50

C         12.10278        1.08268       -0.51538
C         11.16699        1.32827        0.67091
C          9.69679        1.45450        0.24411
C          8.78921        1.71928        1.42833
O          7.42226        1.90162        0.93403
C          6.46120        1.97891        1.89591
N          6.49039        3.31666        2.63256
N          6.94713        3.41566        3.85563
N          6.99188        4.69121        4.18433
C          6.56279        5.41228        3.12919
N          6.24434        4.55566        2.12633
C          5.67369        4.76497        0.77061
C          6.32197        5.89780       -0.03677
C          7.78072        5.67017       -0.46755
C          7.94731        4.82841       -1.77856
Br         7.14385        5.66604       -3.34652
F          9.24806        4.58450       -2.00730
F          7.33242        3.62476       -1.57764
Br         8.69228        7.38564       -0.65986
F          8.44995        4.95437        0.51997
C          6.49039        6.89547        3.11963
C          6.66421        7.48894        4.52388
O          6.70574        8.88612        4.34940
C          6.82930        9.59528        5.59583
C          6.87902       11.08067        5.28808
O          5.67122       11.56707        4.71329
H         13.14595        1.00265       -0.18383
H         12.04714        1.90331       -1.24522
H         11.84833        0.15127       -1.04072
H         11.47367        2.24733        1.19776
H         11.27147        0.50813        1.40021
H          9.36826        0.53606       -0.26684
H          9.59077        2.27767       -0.47802
H          9.09858        2.63242        1.96446
H          8.78631        0.87871        2.14340
H          6.57051        1.27180        2.73567
H          5.46970        1.88657        1.43375
H          4.60700        4.99277        0.90788
H          5.76256        3.81022        0.24348
H          6.25896        6.84799        0.50160
H          5.71186        6.02717       -0.94246
H          5.53589        7.23493        2.68707
H          7.29307        7.29263        2.47342
H          7.59548        7.11281        4.98590
H          5.82425        7.18462        5.17875
H          7.75313        9.28168        6.11745
H          5.95991        9.36517        6.23831
H          7.74967       11.29598        4.64154
H          7.01774       11.62987        6.23044
H          5.56600       11.14222        3.84763
