78

C          1.63235        2.21189        1.29707
C          2.96031        1.55339        0.91574
C          3.25032        1.58680       -0.58894
C          4.59795        0.96348       -0.96532
C          4.87924        0.94603       -2.47177
C          6.27151        0.40925       -2.81882
C          6.54773        0.30653       -4.32258
C          7.96785       -0.17405       -4.63848
C          8.25276       -0.35655       -6.13346
C          9.70292       -0.76947       -6.40968
C          9.99673       -1.07527       -7.88325
C         11.46045       -1.47082       -8.09941
C         11.77460       -1.85257       -9.57160
C         13.18402       -2.29421       -9.68748
N         13.62285       -3.52560       -9.33544
N         14.93113       -3.53057       -9.44242
N         15.32880       -2.34509       -9.84516
N         14.24814       -1.53302      -10.01746
C         14.25160       -0.11800      -10.47565
C         13.84388        0.08565      -11.94266
C         14.87386       -0.25118      -13.03734
P         15.07910       -2.00386      -13.48689
O         15.74446       -2.84372      -12.44629
O         13.57599       -2.40136      -13.83715
C         13.24224       -3.78248      -14.21306
C         11.79888       -4.03803      -13.83870
O         15.81647       -2.01233      -14.90202
C         17.26504       -2.21588      -15.02471
C         17.54472       -2.83567      -16.37598
C         16.79493       -2.04023      -10.17120
O         17.09069       -0.90293      -10.38463
C         17.64860       -3.25327      -10.08731
H          1.45660        2.16646        2.38060
H          0.78313        1.71731        0.80235
H          1.61309        3.27179        1.00234
H          2.96507        0.50556        1.26074
H          3.78509        2.05061        1.45413
H          3.22010        2.63236       -0.94358
H          2.43993        1.06382       -1.12720
H          4.64350       -0.06945       -0.57759
H          5.40668        1.51229       -0.45110
H          4.77035        1.96718       -2.87781
H          4.11163        0.33638       -2.97999
H          6.40219       -0.58683       -2.35997
H          7.03475        1.05621       -2.35134
H          6.38064        1.28968       -4.79677
H          5.81512       -0.37946       -4.78271
H          8.15238       -1.13057       -4.11877
H          8.69338        0.54260       -4.21443
H          8.02668        0.57956       -6.67300
H          7.56851       -1.11841       -6.54565
H          9.94653       -1.66033       -5.80502
H         10.38056        0.02862       -6.05891
H          9.74971       -0.19885       -8.50695
H          9.34224       -1.89383       -8.22783
H         11.71350       -2.32960       -7.45855
H         12.12231       -0.64460       -7.78842
H         11.55991       -1.01557      -10.24922
H         11.14207       -2.69811       -9.87832
H         15.24545        0.28384      -10.26377
H         13.52923        0.38497       -9.81958
H         13.62006        1.16130      -12.01244
H         12.89518       -0.43088      -12.14874
H         15.87487        0.12636      -12.77790
H         14.57429        0.25938      -13.96421
H         13.92497       -4.46514      -13.68668
H         13.40888       -3.87380      -15.29546
H         11.65057       -3.95738      -12.75299
H         11.51371       -5.05396      -14.14418
H         11.12812       -3.33051      -14.34273
H         17.59560       -2.86129      -14.19900
H         17.74656       -1.23100      -14.92440
H         17.06828       -3.82067      -16.46425
H         18.62843       -2.96709      -16.50040
H         17.18195       -2.19478      -17.18952
H         17.56451       -3.72436       -9.09849
H         18.68112       -2.94471      -10.27622
H         17.31637       -3.98112      -10.83864
