84

C          1.71585        0.82469        2.27951
C          3.18472        0.81642        1.84866
C          4.07275       -0.05719        2.74168
C          5.54533       -0.07630        2.31967
C          6.42562       -0.95996        3.20943
C          7.89848       -0.98568        2.78835
C          8.76993       -1.88977        3.66609
C         10.24075       -1.93221        3.23917
C         11.09456       -2.87252        4.09612
C         12.55654       -2.96026        3.63830
C         13.45346       -3.85039        4.51340
C         13.02456       -5.32416        4.51720
C         13.79474       -6.21655        5.51184
C         15.29995       -6.37029        5.19829
C         15.56169       -7.21745        3.94416
C         14.92026       -8.60855        4.02203
N         13.44738       -8.41846        4.40039
C         13.17095       -7.61696        5.67553
C         11.66718       -7.68975        5.94985
C         11.27607       -7.00753        7.27430
C          9.74767       -7.03517        7.49485
N          9.23738       -6.28561        8.62137
C          9.34105       -4.83121        8.53092
C          8.74383       -4.18912        9.77211
O          9.54350       -4.60426       10.88842
O         11.99159       -7.58632        8.37137
C         15.59125       -9.56953        5.00619
C         14.96100      -10.96864        5.10296
C         15.30292      -11.66731        6.43914
C         14.81859      -10.89999        7.58068
C         14.41568      -10.20391        8.48625
H          1.10590        1.45807        1.62087
H          1.60248        1.20720        3.30493
H          1.28655       -0.18815        2.25638
H          3.57508        1.84823        1.84736
H          3.26169        0.46445        0.80586
H          3.68040       -1.08987        2.74428
H          3.99661        0.29526        3.78574
H          5.94043        0.95475        2.32370
H          5.62076       -0.42302        1.27384
H          6.02764       -1.99046        3.20486
H          6.35107       -0.61347        4.25543
H          8.30288        0.04133        2.80630
H          7.97163       -1.31940        1.73821
H          8.35760       -2.91503        3.65037
H          8.70344       -1.55440        4.71633
H         10.66586       -0.91461        3.27615
H         10.30404       -2.24681        2.18258
H         10.62659       -3.87274        4.07951
H         11.06234       -2.54135        5.14972
H         12.98733       -1.94677        3.61952
H         12.59257       -3.31855        2.59416
H         13.44062       -3.47580        5.55184
H         14.49444       -3.75764        4.16676
H         13.10017       -5.71088        3.48235
H         11.95554       -5.36372        4.76761
H         13.71760       -5.74655        6.50519
H         15.80345       -6.81658        6.06906
H         15.75539       -5.38081        5.06469
H         16.64079       -7.35130        3.78682
H         15.19000       -6.69663        3.04746
H         14.88629       -9.06855        3.02134
H         13.01172       -9.34550        4.50353
H         12.96403       -7.95030        3.62181
H         13.69310       -8.15932        6.47677
H         11.36378       -8.75165        6.00746
H         11.09126       -7.23795        5.12573
H         11.60822       -5.95739        7.25192
H          9.43737       -8.09208        7.60689
H          9.25478       -6.66499        6.57857
H          9.64755       -6.59822        9.50277
H          8.77601       -4.49014        7.64744
H         10.38243       -4.45845        8.42090
H          7.69853       -4.52196        9.89190
H          8.75854       -3.09033        9.66063
H          9.10873       -4.31852       11.70545
H         11.54554       -8.41431        8.62054
H         15.62139       -9.11763        6.00826
H         16.63953       -9.66252        4.68619
H         15.28633      -11.59815        4.26203
H         13.85769      -10.93090        5.04451
H         16.39406      -11.80174        6.52392
H         14.86640      -12.67774        6.45232
H         14.08747       -9.60616        9.31147
