83

C          3.13081        4.40401       -0.27928
C          3.54402        3.13086        0.46386
N          2.48448        2.10719        0.51026
C          1.60197        1.99567        1.52498
S          0.41899        0.80752        1.60618
S          1.83622        3.24444        2.79306
C          0.52733        2.86872        3.98181
C         -0.83753        3.43726        3.58759
C         -1.90161        3.02470        4.62072
N         -3.23242        2.82428        4.02163
C         -3.63857        1.65913        3.47080
N         -4.87369        1.88090        2.98197
C         -5.25611        3.18986        3.20626
C         -4.22141        3.80162        3.86218
C         -4.06684        5.20151        4.33981
C         -4.24960        5.37838        5.86495
C         -3.58189        6.65171        6.39689
S         -1.76981        6.62602        6.25189
C         -1.46993        7.68520        4.81522
S         -2.65262        8.47606        3.96834
N         -0.14042        7.74343        4.49729
C          0.90920        7.24209        5.34932
C          1.10703        7.78061        6.62742
C          2.14744        7.29817        7.42327
C          2.99982        6.29926        6.94418
C          2.81671        5.78778        5.65552
C          1.77564        6.25917        4.85597
C          0.29268        8.34973        3.25659
C          0.06843        7.69211        2.04256
C          0.53898        8.25869        0.85826
C          1.23099        9.47422        0.88733
C          1.45690       10.12055        2.10509
C          0.99125        9.55782        3.29555
C         -2.87946        0.38139        3.39390
C         -2.54310       -0.22200        4.75244
C         -1.27944       -0.79134        4.95825
C         -0.96234       -1.36787        6.19076
C         -1.89894       -1.37386        7.22757
C         -3.16002       -0.80482        7.02742
C         -3.48058       -0.23259        5.79483
C          2.45343        1.17067       -0.62865
C          3.36024       -0.04219       -0.41839
H          3.97710        5.10311       -0.31275
H          2.29386        4.90599        0.22315
H          2.83487        4.18467       -1.31393
H          3.86046        3.35987        1.49134
H          4.41126        2.66493       -0.02554
H          0.89397        3.29948        4.92517
H          0.47895        1.77431        4.07972
H         -1.10563        3.03809        2.59947
H         -0.79125        4.53276        3.50954
H         -1.99710        3.78210        5.40755
H         -1.63304        2.07662        5.10398
H         -5.42750        1.17477        2.50742
H         -6.21316        3.57892        2.88286
H         -4.77933        5.83714        3.79891
H         -3.07108        5.57071        4.04999
H         -3.85295        4.50374        6.40363
H         -5.32414        5.41530        6.10344
H         -3.78882        6.77900        7.46732
H         -3.91739        7.55246        5.85542
H          0.45180        8.57274        6.98945
H          2.30002        7.71667        8.41861
H          3.81523        5.93227        7.56798
H          3.49043        5.02313        5.26620
H          1.64221        5.88545        3.84045
H         -0.48154        6.75071        2.03077
H          0.36287        7.75169       -0.09131
H          1.59311        9.91830       -0.04036
H          1.99310       11.06945        2.13086
H          1.15995       10.05326        4.25197
H         -1.94461        0.55889        2.83091
H         -3.47069       -0.32840        2.79312
H         -0.54333       -0.77911        4.15171
H          0.02198       -1.81287        6.34019
H         -1.64823       -1.82216        8.18921
H         -3.89699       -0.80975        7.83094
H         -4.47087        0.20647        5.64885
H          2.76245        1.74199       -1.51615
H          1.41224        0.85545       -0.76823
H          4.40505        0.25356       -0.25066
H          3.33314       -0.68228       -1.31020
H          3.02227       -0.63555        0.44029
