73

C          2.54825        3.97485      -11.49246
C          3.93202        3.35630      -11.27691
C          4.32327        3.24677       -9.79848
C          5.72777        2.67684       -9.57507
C          6.11042        2.54681       -8.09652
C          7.54914        2.06360       -7.88223
C          7.93861        1.93406       -6.40509
C          9.40801        1.54585       -6.22219
C          9.80838        1.44004       -4.72764
C         11.25602        1.10421       -4.54943
C         12.24014        2.01112       -4.95461
C         13.57784        1.68002       -4.82680
N         13.91742        0.49155       -4.29839
N         13.03220       -0.39803       -3.86976
C         11.73265       -0.11736       -3.98756
C         10.83997       -1.22850       -3.51077
C         10.29182       -1.98768       -4.74118
O         10.50015       -1.53347       -5.87326
N          9.60436       -3.13423       -4.51195
C          9.13065       -3.89318       -5.68877
C         10.19957       -4.76543       -6.35926
C         10.80648       -5.86000       -5.47393
C         11.78807       -6.75558       -6.23425
C          9.38354       -3.68620       -3.17597
C         15.34032        0.09277       -4.13489
C         16.05411        0.91906       -3.07126
O         15.37439        0.74259       -1.85406
C         16.02135        1.39719       -0.74588
C         15.21826        1.12074        0.50832
H          2.29950        4.04429      -12.56018
H          2.49623        4.99091      -11.07359
H          1.76249        3.37818      -11.00642
H          4.69007        3.95539      -11.80912
H          3.96431        2.35365      -11.73527
H          3.58279        2.61997       -9.27123
H          4.25865        4.24536       -9.33113
H          6.46518        3.32036      -10.08633
H          5.80452        1.68777      -10.05950
H          5.41018        1.85636       -7.59515
H          5.97954        3.52375       -7.59871
H          8.24155        2.76532       -8.37945
H          7.69264        1.09143       -8.38409
H          7.29408        1.18183       -5.91827
H          7.73975        2.88872       -5.88721
H         10.04607        2.29634       -6.71831
H          9.61953        0.57926       -6.70089
H          9.16885        0.69985       -4.23183
H          9.61707        2.41047       -4.23769
H         11.97296        2.97614       -5.38459
H         14.39429        2.33183       -5.13434
H         10.01215       -0.83655       -2.90077
H         11.43238       -1.89445       -2.87014
H          8.74875       -3.16273       -6.41383
H          8.28623       -4.50888       -5.34752
H         10.99479       -4.11373       -6.75398
H          9.72338       -5.22916       -7.23936
H          9.99916       -6.47739       -5.04400
H         11.32943       -5.40027       -4.61864
H         11.29411       -7.26368       -7.07506
H         12.21318       -7.53020       -5.58244
H         12.62347       -6.17147       -6.64763
H          9.13330       -2.90048       -2.45255
H         10.25443       -4.24960       -2.80542
H          8.53301       -4.37484       -3.22078
H         15.83725        0.19764       -5.10874
H         15.30696       -0.96364       -3.84994
H         16.09703        1.99046       -3.36081
H         17.10111        0.55866       -3.02248
H         16.08511        2.48281       -0.94995
H         17.05366        1.01222       -0.65135
H         14.19557        1.50955        0.41491
H         15.69156        1.60856        1.37047
H         15.16612        0.04296        0.71029
