48

C          0.76537        0.65146       -1.51795
C          2.19700        0.38921       -1.04440
C          3.11586        1.58904       -0.69896
C          2.68783        2.58204        0.43949
C          1.35967        3.30378        0.01685
O          1.56611        4.71500        0.24571
C          2.82803        4.97808       -0.21821
N          3.66072        3.80034        0.30592
Br         3.50540        6.65294        0.45627
C          2.68530        2.12964        1.95230
C          4.07091        1.63642        2.49560
C          5.36773        2.48857        2.57820
C          5.29359        3.73804        3.47149
C          6.49275        1.56845        3.08560
C          2.11335        3.27972        2.84283
O          2.25246        2.89380        4.20350
C          1.71865        0.93508        2.13461
C          4.57035        1.06939       -0.62995
O          5.02970        1.02858       -1.97958
H          0.32103       -0.29130       -1.86216
H          0.73279        1.34763       -2.36896
H          0.10524        1.03720       -0.72922
H          2.73116       -0.11806       -1.86213
H          2.18810       -0.32261       -0.20912
H          3.11132        2.23008       -1.60401
H          0.48938        3.00746        0.60755
H          1.15002        3.14134       -1.04879
H          2.92242        4.99447       -1.31584
H          4.05743        4.04816        1.22645
H          4.44360        3.58384       -0.32502
H          4.31883        0.71752        1.94473
H          3.86003        1.30222        3.52249
H          5.68709        2.80712        1.56626
H          6.29121        4.18561        3.57293
H          4.92790        3.47877        4.47347
H          4.63253        4.53444        3.09166
H          6.27102        1.21138        4.10195
H          7.45073        2.10396        3.11990
H          6.61956        0.68711        2.44128
H          1.05081        3.44104        2.59675
H          2.62556        4.24453        2.67036
H          1.67450        3.45167        4.74594
H          2.14911       -0.00351        1.77038
H          0.75147        1.08885        1.63706
H          1.52409        0.81483        3.20689
H          4.59595        0.06967       -0.16469
H          5.23016        1.71744       -0.02334
H          5.82673        0.47800       -2.03183
