52

C          6.11146        0.78278        3.07407
C          5.47003        1.84648        2.17977
C          6.16462        1.97980        0.81527
C          5.49735        3.04694       -0.03834
O          6.20138        3.24963       -1.31650
C          5.79676        2.50067       -2.35565
O          4.93639        1.65014       -2.34684
C          6.56528        2.89034       -3.62399
P          8.36538        2.61553       -3.54475
C          8.96962        0.85504       -3.49495
C          8.92741        0.18325       -4.91596
C          9.34622       -1.29843       -4.85783
C          7.58056        0.30313       -5.64534
C         10.45175        0.93824       -3.03294
O         10.54618        1.75176       -1.86631
C          8.11977        0.13365       -2.42515
C          9.17135        3.62973       -4.85267
O          8.68520        4.92841       -4.63995
C          9.34480        5.93662       -5.45245
C          8.74423        7.28177       -5.10696
H          5.58729        0.70892        4.03584
H          7.16425        1.01915        3.28817
H          6.08009       -0.21033        2.60281
H          5.48721        2.82099        2.69503
H          4.40662        1.60282        2.02206
H          6.12821        1.01261        0.28848
H          7.22693        2.23841        0.95922
H          5.54146        4.03438        0.43766
H          4.45350        2.79288       -0.26398
H          6.48184        3.97725       -3.78701
H          6.13331        2.35900       -4.47617
H          8.76255        3.21889       -2.33630
H          9.68479        0.70869       -5.52482
H          8.58793       -1.91515       -4.35682
H         10.30745       -1.46075       -4.35482
H          9.45181       -1.67899       -5.88156
H          6.74322       -0.07849       -5.04406
H          7.61095       -0.28989       -6.56817
H          7.34715        1.33257       -5.95249
H         11.08189        1.33468       -3.85088
H         10.78481       -0.09055       -2.82196
H         11.42986        1.65492       -1.47928
H          7.07987       -0.01343       -2.73966
H          8.12275        0.67855       -1.47219
H          8.55621       -0.85422       -2.22877
H          8.92689        3.22376       -5.85355
H         10.26664        3.54532       -4.70407
H          9.19666        5.68604       -6.51771
H         10.42782        5.90850       -5.23667
H          7.66812        7.30243       -5.32260
H          9.22637        8.06456       -5.70732
H          8.89722        7.52192       -4.04682
