69

C          7.77714       -2.35767        7.90242
C          6.77684       -3.25275        7.16719
C          7.03572       -3.33743        5.65835
C          6.04602       -4.24130        4.91680
C          6.30427       -4.31537        3.40811
C          5.33879       -5.25245        2.67471
C          5.59096       -5.36110        1.16644
N          6.89358       -5.97023        0.85669
C          8.01742       -5.31663        0.49394
N          7.96101       -4.17565       -0.20155
N          9.23244       -5.82235        0.80355
C         10.40708       -5.50112       -0.01884
C         11.25598       -4.26716        0.41047
N         11.61056       -4.40656        1.82544
N         12.33387       -4.20300       -0.57934
N         10.45800       -3.02440        0.27324
C          9.43791       -6.74226        1.93590
C          9.74310       -8.18921        1.51242
C         10.60064       -8.90363        2.56832
S         11.60679      -10.25505        1.90637
C         13.00110       -9.38062        1.19453
S         13.17882       -7.70629        1.26437
N         13.90248      -10.19647        0.61320
C         13.76613      -11.66496        0.58622
C         13.06347      -12.18420       -0.67007
C         15.10990       -9.65809       -0.04165
C         16.30599       -9.56512        0.90664
H          7.56246       -2.31640        8.97857
H          7.74869       -1.32680        7.51911
H          8.80686       -2.72724        7.78429
H          5.75333       -2.87914        7.33742
H          6.80279       -4.26817        7.59734
H          8.06426       -3.70240        5.48466
H          6.99890       -2.32196        5.22537
H          5.01704       -3.88434        5.09396
H          6.08878       -5.25878        5.34370
H          7.34651       -4.64019        3.24259
H          6.23222       -3.30350        2.97220
H          4.30098       -4.90781        2.81214
H          5.37836       -6.26174        3.12129
H          5.55446       -4.36563        0.70385
H          4.81256       -5.96622        0.68078
H          7.02319       -6.91868        1.19297
H          7.10605       -3.89612       -0.66442
H          8.80816       -3.55180       -0.16220
H         10.08456       -5.34149       -1.05450
H         11.06466       -6.38359        0.00087
H         12.14343       -5.27054        1.96656
H         12.22164       -3.63755        2.11172
H         12.85137       -5.08445       -0.61087
H         13.00526       -3.47460       -0.32629
H         10.43430       -2.51135        1.15434
H         10.86004       -2.43398       -0.45507
H          8.56847       -6.67454        2.60324
H         10.28422       -6.33782        2.50652
H         10.30555       -8.16564        0.57012
H          8.82209       -8.75795        1.31142
H          9.99468       -9.37953        3.35239
H         11.29732       -8.19758        3.04353
H         13.24103      -11.98754        1.49611
H         14.78298      -12.07631        0.65854
H         12.03794      -11.80001       -0.73968
H         13.01691      -13.28098       -0.64182
H         13.60461      -11.89500       -1.58094
H         14.85574       -8.66899       -0.44149
H         15.33260      -10.32415       -0.88780
H         16.09588       -8.87197        1.73070
H         17.18215       -9.19338        0.35866
H         16.56743      -10.54436        1.33037
