74

C          3.57972       -1.42271       -2.37254
C          4.18621       -2.01911       -1.10026
C          3.74265       -1.28841        0.17199
C          4.37174       -1.89167        1.43492
N          4.03216       -1.15928        2.66530
C          2.99805       -1.48394        3.46679
S          2.61971       -0.66443        4.88365
S          2.05722       -2.90046        2.88344
C          0.91507       -3.17887        4.25989
C         -0.37131       -2.34532        4.19540
C         -1.07873       -2.37132        5.55804
C         -2.38862       -1.55349        5.72869
C         -3.40500       -1.89362        4.58768
N         -3.14534       -0.84831        3.57975
C         -2.46829        0.14719        4.04699
C         -2.12287       -0.01053        5.47351
C         -0.77306        0.64658        5.84956
C         -0.55493        0.81757        7.35532
C          0.78849        1.49168        7.64577
S          0.90061        1.85133        9.40930
O         -0.05166        2.89486        9.73645
O          0.92597        0.60037       10.12329
O          2.39084        2.48671        9.49933
C         -3.04530       -1.88980        7.07460
C         -3.39293       -0.92925        8.03248
C         -4.00835       -1.29435        9.23382
C         -4.30447       -2.63143        9.49454
C         -3.98412       -3.60064        8.54084
C         -3.36113       -3.23392        7.34843
C          4.92621       -0.03947        3.00802
C          6.11017       -0.47626        3.87868
C          7.02528        0.69838        4.23962
C          8.22505        0.27418        5.09008
H          3.93096       -1.95294       -3.26747
H          3.85237       -0.36327       -2.48666
H          2.48151       -1.48364       -2.36016
H          5.28659       -1.99189       -1.16891
H          3.91382       -3.08497       -1.02428
H          2.64485       -1.32133        0.26290
H          4.01857       -0.22330        0.10114
H          5.46901       -1.88534        1.35201
H          4.07759       -2.94495        1.55351
H          1.47454       -2.95090        5.17880
H          0.70173       -4.25744        4.22978
H         -1.01532       -2.73840        3.39120
H         -0.08952       -1.32046        3.91066
H         -0.36956       -2.03732        6.33084
H         -1.30784       -3.41624        5.81435
H         -4.44820       -1.79857        4.92409
H         -3.26924       -2.88659        4.14078
H         -3.50583       -0.88832        2.62480
H         -2.22514        1.00361        3.41310
H         -2.92242        0.56611        5.99173
H         -0.74978        1.64180        5.37462
H          0.06408        0.08247        5.41005
H         -0.58564       -0.15229        7.87117
H         -1.36066        1.43407        7.78384
H          0.89642        2.45314        7.12419
H          1.64510        0.85031        7.39801
H          2.28897        3.44057        9.68229
H         -3.18021        0.12761        7.87671
H         -4.24856       -0.52447        9.96708
H         -4.78000       -2.91773       10.43247
H         -4.21570       -4.64994        8.72509
H         -3.12093       -4.01842        6.62836
H          4.32777        0.71917        3.52897
H          5.28033        0.39175        2.05941
H          6.69128       -1.25146        3.35145
H          5.71961       -0.94237        4.79664
H          6.43820        1.45949        4.77999
H          7.38104        1.18620        3.31627
H          7.90225       -0.18770        6.03443
H          8.86002        1.13413        5.34091
H          8.85214       -0.45757        4.56028
