104

C          0.13661       -0.31177        0.57863
C          1.65492       -0.19685        0.41854
C          2.21143       -1.02901       -0.74247
C          3.73167       -0.92259       -0.89932
C          4.29910       -1.75940       -2.05100
C          5.82176       -1.65505       -2.18554
C          6.40972       -2.50677       -3.31548
C          7.93592       -2.41163       -3.41312
C          8.55062       -3.28600       -4.51102
C         10.08026       -3.20778       -4.55830
C         10.72287       -4.11153       -5.61588
C         12.25426       -4.05663       -5.60679
C         12.91995       -4.99377       -6.62052
C         14.45019       -4.97456       -6.54772
C         15.13256       -5.94435       -7.51862
C         16.65893       -5.96475       -7.38130
C         17.34817       -6.95821       -8.32558
C         18.88047       -6.99212       -8.21244
C         19.39268       -7.57319       -6.88727
C         20.92583       -7.49895       -6.77808
C         21.46417       -8.18514       -5.51793
C         21.00384       -7.47811       -4.23390
O         21.48035       -8.09883       -3.05299
C         22.89854       -8.03313       -3.00773
C         23.50618       -8.81727       -4.15725
N         23.02540       -8.38021       -5.54667
C         23.78405       -7.14783       -6.05182
C         23.60697       -5.89942       -5.33732
C         23.55581       -4.79268       -4.85449
C         23.32002       -9.50568       -6.55336
C         24.74225      -10.08385       -6.59415
O         24.83027      -10.98835       -5.50260
C         26.16459      -11.31384       -5.03241
C         26.14462      -11.29646       -3.52649
C         25.53596      -12.34133       -2.81529
C         25.44383      -12.28866       -1.42329
C         25.96514      -11.19415       -0.72542
C         26.58566      -10.15444       -1.42361
C         26.67266      -10.20749       -2.81750
C         24.97611      -10.77162       -7.94439
H         -0.22835        0.29606        1.41811
H         -0.16772       -1.35262        0.76550
H         -0.38739        0.02589       -0.32809
H          2.14871       -0.50754        1.35508
H          1.93095        0.86107        0.27039
H          1.72287       -0.71567       -1.68218
H          1.93208       -2.08783       -0.59772
H          4.21601       -1.23026        0.04452
H          4.00937        0.13610       -1.04716
H          3.82463       -1.44873       -2.99851
H          4.01750       -2.81738       -1.90623
H          6.29000       -1.95072       -1.22984
H          6.10209       -0.59835       -2.34170
H          5.95935       -2.20427       -4.27717
H          6.11937       -3.56163       -3.16556
H          8.37693       -2.69270       -2.44025
H          8.22563       -1.35913       -3.57987
H          8.13537       -2.99401       -5.49153
H          8.24470       -4.33554       -4.35477
H         10.48406       -3.47374       -3.56512
H         10.38742       -2.16195       -4.73580
H         10.34907       -3.83312       -6.61678
H         10.39573       -5.15345       -5.45118
H         12.61627       -4.30769       -4.59371
H         12.58481       -3.01989       -5.79472
H         12.59494       -4.72521       -7.64086
H         12.56171       -6.02455       -6.45156
H         14.76302       -5.21807       -5.51627
H         14.81409       -3.94954       -6.73772
H         14.85990       -5.68261       -8.55574
H         14.74009       -6.96262       -7.35130
H         16.90887       -6.19890       -6.33161
H         17.05808       -4.95178       -7.56770
H         17.08300       -6.70491       -9.36444
H         16.94640       -7.97201       -8.15332
H         19.27552       -5.96844       -8.33606
H         19.29510       -7.58310       -9.04618
H         19.06242       -8.62175       -6.79268
H         18.93359       -7.02613       -6.05130
H         21.22951       -6.44000       -6.78662
H         21.34871       -7.96245       -7.68299
H         21.10288       -9.22364       -5.46829
H         19.91018       -7.55505       -4.19928
H         21.27092       -6.40801       -4.25614
H         23.21778       -8.52334       -2.07768
H         23.24317       -6.98661       -2.98148
H         23.23924       -9.87572       -4.06887
H         24.59939       -8.74892       -4.15032
H         23.49050       -7.01615       -7.10202
H         24.84569       -7.43061       -6.03699
H         23.49585       -3.82183       -4.40414
H         23.04510       -9.11150       -7.53728
H         22.63508      -10.32414       -6.29850
H         25.50243       -9.28515       -6.47465
H         26.88622      -10.57371       -5.41743
H         26.44612      -12.30373       -5.42553
H         25.13432      -13.20067       -3.35574
H         24.97501      -13.10861       -0.87813
H         25.90283      -11.16062        0.36275
H         27.01552       -9.31128       -0.88136
H         27.17847       -9.40360       -3.35924
H         24.22002      -11.54953       -8.11982
H         25.96241      -11.25193       -7.95180
H         24.94733      -10.05203       -8.77463
