87

C          3.10480       -5.78358       -3.07476
C          3.78397       -5.32220       -1.78319
C          3.68785       -6.36849       -0.66780
C          4.40576       -6.01107        0.63982
N          3.88671       -4.79518        1.30337
C          2.78050       -4.86169        2.07513
S          1.94788       -6.27964        2.40841
S          2.28525       -3.26657        2.74502
C          0.78370       -3.67899        3.66712
C         -0.46077       -3.77282        2.78216
C         -1.69046       -4.19958        3.59427
N         -2.84481       -4.51382        2.74507
C         -3.72757       -3.42559        2.28965
C         -4.81545       -4.15260        1.46810
N         -4.65633       -5.54091        1.94632
C         -3.42970       -5.70326        2.51784
N         -2.95805       -6.92378        2.78844
C         -1.63868       -7.35239        3.29126
C         -1.43103       -8.83365        2.97499
C         -0.10705       -9.31966        3.57536
S          0.03402      -11.11996        3.67464
C         -0.87879      -11.47329        5.18424
S         -1.61247      -10.27735        6.09418
N         -0.89264      -12.79068        5.50118
C         -0.19685      -13.84478        4.75175
C         -1.12727      -15.04363        4.54617
O         -1.63967      -15.52837        5.78011
C         -2.37221      -14.50279        6.44970
C         -1.50153      -13.28507        6.74403
C         -4.60907       -4.03024       -0.05024
C         -5.72426       -4.67774       -0.86996
C         -5.48931       -4.48883       -2.38103
F         -4.27881       -4.94083       -2.77692
F         -6.43247       -5.17376       -3.08175
F         -5.58380       -3.18202       -2.71895
O         -5.78168       -6.06956       -0.55472
C          4.64828       -3.54330        1.11101
C          5.64735       -3.21915        2.23234
C          6.80274       -4.21293        2.39212
C          7.78439       -3.78934        3.48710
H          3.17432       -5.01941       -3.86033
H          2.03839       -5.99731       -2.90882
H          3.57012       -6.70186       -3.46191
H          3.32488       -4.37727       -1.44867
H          4.84437       -5.09604       -1.98908
H          4.12839       -7.31705       -1.01882
H          2.63180       -6.58499       -0.44463
H          5.47302       -5.83296        0.45317
H          4.31386       -6.84316        1.35086
H          0.70056       -2.87774        4.41690
H          0.97452       -4.63468        4.17960
H         -0.27136       -4.52453        2.00210
H         -0.64109       -2.80923        2.28298
H         -2.00496       -3.40193        4.28719
H         -1.45624       -5.07327        4.21094
H         -3.16789       -2.69559        1.68881
H         -4.14897       -2.90777        3.16627
H         -5.81621       -3.78597        1.73845
H         -5.02850       -6.26356        1.32746
H         -3.62231       -7.67892        2.63955
H         -1.59335       -7.22414        4.38447
H         -0.84983       -6.74334        2.82620
H         -1.44540       -9.00366        1.88777
H         -2.25094       -9.40984        3.43199
H          0.01962       -8.93971        4.59959
H          0.75567       -9.00774        2.96891
H          0.69591      -14.15635        5.32070
H          0.13122      -13.46719        3.77576
H         -0.57013      -15.87153        4.08753
H         -1.95836      -14.75703        3.87187
H         -2.73461      -14.93947        7.38969
H         -3.24494      -14.20139        5.83798
H         -0.69296      -13.56090        7.44258
H         -2.08709      -12.47031        7.18612
H         -3.64104       -4.47234       -0.33345
H         -4.57469       -2.96192       -0.31101
H         -6.69085       -4.18662       -0.65159
H         -6.48650       -6.48184       -1.08299
H          3.93110       -2.71604        0.99298
H          5.17322       -3.63977        0.15139
H          5.10619       -3.12334        3.18656
H          6.05521       -2.21813        2.01191
H          7.33946       -4.31110        1.43307
H          6.40462       -5.21244        2.63011
H          8.21830       -2.80150        3.27355
H          8.61201       -4.50493        3.57965
H          7.28527       -3.72842        4.46528
