63

C          4.18348        5.58358       -4.53566
C          4.99520        6.36979       -3.50311
C          5.52012        5.49752       -2.35698
C          6.37647        6.26486       -1.34473
C          6.83465        5.40174       -0.16369
C          7.73573        6.16269        0.81854
C          8.10546        5.29389        2.02116
S          9.26134        6.24410        3.08717
C          9.27707        5.23477        4.48115
N          8.59628        4.13912        4.75514
N          9.00697        3.73092        6.01432
C          9.87100        4.61026        6.41233
O         10.12162        5.59917        5.51098
N         10.55073        4.64373        7.63184
N         11.93484        4.47176        7.63505
C         12.26402        4.55339        8.89032
N         11.17390        4.76389        9.70274
C         10.07503        4.82021        8.90486
N          8.83130        5.04345        9.36232
C          8.66686        5.66875       10.69017
C          8.95291        4.70015       11.84691
O         10.08237        4.26427       12.06940
O          7.86793        4.41070       12.54002
C          8.01700        3.50267       13.70277
C          8.35853        4.27935       14.96331
C          8.41386        3.35674       16.19053
C          8.75812        4.11314       17.47606
C          7.61027        4.81508        8.56495
C          7.18097        5.98677        7.72258
C          7.82533        7.14820        7.59737
H          3.81289        6.23621       -5.33767
H          3.31117        5.09762       -4.07352
H          4.79083        4.79467       -5.00369
H          4.37631        7.18205       -3.08553
H          5.84567        6.86484       -4.00194
H          6.11017        4.66258       -2.77426
H          4.66543        5.03114       -1.83558
H          5.80755        7.13048       -0.96260
H          7.25982        6.68471       -1.85663
H          7.37282        4.51527       -0.54050
H          5.94993        5.01720        0.37256
H          7.22250        7.07399        1.16627
H          8.64893        6.49450        0.29705
H          8.61385        4.36781        1.72143
H          7.22744        5.03287        2.62573
H         13.27954        4.46237        9.26226
H         11.06261        4.63604       10.74175
H          7.64153        6.04532       10.74863
H          9.35251        6.52507       10.78829
H          8.78190        2.75659       13.45225
H          7.03354        3.02207       13.76711
H          7.60296        5.06582       15.11934
H          9.33075        4.78126       14.83472
H          9.15868        2.56238       16.01778
H          7.44364        2.84696       16.30949
H          9.73768        4.60688       17.40028
H          8.79548        3.43135       18.33538
H          8.00957        4.88738       17.69767
H          6.81944        4.54833        9.28319
H          7.76235        3.92828        7.93089
H          6.25390        5.81184        7.16952
H          8.75628        7.36593        8.12538
H          7.44335        7.93710        6.95156
