53

C          8.14130       -8.27773       -9.71158
C          8.66516       -6.89994       -9.30045
C          7.79425       -6.21671       -8.23853
C          8.32860       -4.83878       -7.82258
C          7.41743       -4.17008       -6.80476
O          7.96454       -2.87686       -6.35337
C          7.69789       -1.82346       -7.13467
O          7.04296       -1.81231       -8.15276
C          8.30905       -0.51721       -6.59180
N          9.35400       -0.63711       -5.58641
C         10.58559       -1.11170       -5.82750
N         11.49518       -1.20398       -4.78777
C         12.87099       -1.42341       -5.09097
O         13.28971       -1.77346       -6.18448
O         13.62772       -1.15730       -4.03293
C         15.07287       -1.43247       -4.17790
C         15.38732       -2.88441       -3.88171
C         11.00096       -1.23478       -3.36066
C         11.53135       -2.46311       -2.60082
O         11.45372       -3.58428       -3.47410
C         11.23982        0.06532       -2.57872
C         10.55650        1.30828       -3.15138
N         10.92413       -1.47412       -7.05952
H          8.77975       -8.73385      -10.47975
H          7.12333       -8.21278      -10.12263
H          8.10944       -8.96658       -8.85481
H          8.72698       -6.24838      -10.18814
H          9.69613       -6.99410       -8.91949
H          7.71899       -6.86892       -7.35121
H          6.76704       -6.10899       -8.62691
H          8.41147       -4.19627       -8.71339
H          9.33896       -4.94011       -7.39329
H          7.34049       -4.75144       -5.87783
H          6.41426       -3.98979       -7.21313
H          7.48781        0.05488       -6.14042
H          8.64542        0.07413       -7.45822
H          9.17232       -0.24094       -4.67307
H         15.52293       -0.75080       -3.44731
H         15.37231       -1.13773       -5.19051
H         15.07538       -3.16424       -2.86713
H         16.47399       -3.03147       -3.95061
H         14.91068       -3.55720       -4.60551
H          9.92231       -1.42154       -3.45795
H         10.87694       -2.58447       -1.71991
H         12.55833       -2.29369       -2.24317
H         11.71524       -4.38020       -2.98637
H         12.32087        0.23734       -2.49493
H         10.87557       -0.11324       -1.55482
H         10.89831        1.53926       -4.17058
H         10.78102        2.18692       -2.53408
H          9.45771        1.21302       -3.15928
H         10.30830       -1.29925       -7.84373
H         11.89309       -1.79991       -7.18793
