64

O          5.48765       -1.38330        1.61723
C          5.64311       -2.73533        2.07138
C          5.93075       -3.62843        0.87662
N          7.21317       -3.29655        0.25012
C          7.54184       -4.09095       -0.93243
C          6.85132       -3.58208       -2.21049
C          7.11189       -2.08950       -2.50809
C          6.22401       -1.11724       -1.72161
O          4.83819       -1.37046       -1.84100
C          4.30975       -0.95825       -3.09025
C          2.87738       -1.38047       -3.23060
C          2.17830       -1.96355       -2.25877
N          4.42415        0.50982       -3.18303
C          5.53815        1.07905       -2.69180
N          5.73897        2.41105       -2.78295
C          4.71713        3.34961       -3.25597
C          3.70552        3.73459       -2.15826
C          2.28055        3.95644       -2.66557
S          1.50756        2.50488       -3.47008
C          0.78713        1.59893       -2.07487
S          1.41642        1.70615       -0.53743
N         -0.25594        0.81743       -2.43173
C         -0.86529       -0.08967       -1.43968
C         -2.01153        0.56094       -0.66437
C         -0.92312        0.85169       -3.74677
C         -0.40546       -0.19432       -4.73558
N          6.48009        0.28614       -2.15806
O          7.22957       -4.38744       -3.32885
H          5.21338       -0.84091        2.37163
H          4.72372       -3.09362        2.56542
H          6.46848       -2.80768        2.80577
H          5.12797       -3.48613        0.13626
H          5.87597       -4.68578        1.21023
H          7.95870       -3.38202        0.94049
H          7.29972       -5.16757       -0.82414
H          8.63242       -4.01926       -1.08877
H          5.76350       -3.73206       -2.13017
H          6.96756       -1.93902       -3.58867
H          8.16423       -1.83758       -2.29060
H          6.43285       -1.18505       -0.64411
H          4.90676       -1.39025       -3.91509
H          2.44197       -1.19786       -4.21545
H          2.61387       -2.15354       -1.27831
H          1.14793       -2.27436       -2.42334
H          3.55658        1.05964       -3.23730
H          6.48199        2.79459       -2.20729
H          4.21352        2.88202       -4.11513
H          5.24355        4.22756       -3.65140
H          4.03898        4.64966       -1.64460
H          3.66222        2.94514       -1.39394
H          2.22741        4.73651       -3.43935
H          1.62222        4.24514       -1.83638
H         -0.06915       -0.40342       -0.75284
H         -1.22011       -0.97280       -1.99161
H         -1.64881        1.41816       -0.08424
H         -2.44216       -0.16893        0.03403
H         -2.81625        0.90069       -1.33058
H         -0.81670        1.86177       -4.16269
H         -1.99438        0.69496       -3.55654
H          0.63421        0.00954       -5.02313
H         -1.01531       -0.17490       -5.64866
H         -0.45948       -1.20972       -4.31994
H          7.36708        0.69863       -1.88936
H          8.19891       -4.45371       -3.35295
