63

C          0.74101       -0.19225       -0.23812
C          2.26961       -0.12739       -0.18933
C          2.82938       -0.06330        1.23628
C          4.35903       -0.00816        1.29452
C          4.92103        0.03759        2.71952
C          6.45180        0.07068        2.76870
C          7.02669        0.09300        4.18907
C          8.55839        0.10426        4.21803
C          9.15228        0.10794        5.63062
C         10.68508        0.09308        5.63185
C         11.29626        0.09375        7.03751
C         12.82705        0.05250        7.00183
C         13.44395        0.10393        8.42534
C         14.92603        0.06581        8.36693
N         15.71243        1.10924        8.03892
C         17.02934        0.69254        7.99448
N         17.09900       -0.58364        8.29683
N         15.79698       -0.95912        8.51005
C         15.53244       -2.35774        8.92431
C         15.50062       -2.53765       10.47220
F         16.68760       -2.14024       10.98645
F         14.51156       -1.74029       10.97345
F         14.33154       -2.71848        8.41166
F         16.49053       -3.12849        8.39990
C         18.16954        1.57912        7.63340
C         18.34610        1.81346        6.11221
C         17.10410        2.18273        5.31646
Br        16.10122        3.72172        6.07662
H          0.37182       -0.23771       -1.27188
H          0.28808        0.69052        0.23741
H          0.36207       -1.08069        0.28883
H          2.62023        0.75168       -0.75644
H          2.69287       -1.00617       -0.70502
H          2.47442       -0.94089        1.80529
H          2.41084        0.81864        1.75282
H          4.71465        0.87423        0.73361
H          4.77488       -0.88587        0.76874
H          4.55720       -0.83986        3.28270
H          4.51763        0.92110        3.24478
H          6.81575        0.95375        2.21440
H          6.85072       -0.80730        2.23052
H          6.65733       -0.78559        4.74655
H          6.64202        0.97650        4.72799
H          8.92701        0.98669        3.66598
H          8.93745       -0.77512        3.66817
H          8.77797       -0.76763        6.18886
H          8.79275        0.99527        6.17998
H         11.05883        0.96839        5.07233
H         11.03988       -0.79497        5.08047
H         10.92018       -0.77246        7.60762
H         10.96440        0.99189        7.58596
H         13.20800        0.90176        6.41010
H         13.16783       -0.86492        6.49671
H         13.06951       -0.72203        9.03945
H         13.15096        1.03855        8.92799
H         15.40097        2.05198        7.75576
H         15.30092       -3.58959       10.73276
H         19.08401        1.12762        8.03758
H         18.02863        2.54564        8.13965
H         18.74697        0.89618        5.64954
H         19.11406        2.58969        5.99017
H         16.36592        1.37473        5.25856
H         17.35811        2.50099        4.30100
