79

C          1.15772        0.35570        1.30943
C          2.67528        0.38254        1.10935
C          3.11757        1.29766       -0.03843
C          4.63524        1.33402       -0.24860
C          5.06317        2.26357       -1.39011
C          6.58268        2.30492       -1.60567
C          6.97057        3.25202       -2.72643
O          8.40644        3.22698       -2.89486
C          8.87191        4.10158       -3.90566
C         10.37037        3.85375       -4.04931
N         10.92473        4.05586       -2.63215
C         12.40706        3.83798       -2.47062
C         12.77864        2.50710       -3.11862
O         12.28853        2.48204       -4.44955
C         10.85401        2.45962       -4.51384
C         10.43919        2.00492       -5.94951
C         10.80651        3.12048       -6.96899
C         10.88502        2.79928       -8.47938
C          9.54548        2.40582       -9.11809
C         11.47848        4.01875       -9.20239
C         11.26168        0.73072       -6.24709
O         11.03307       -0.21214       -5.19324
C          8.93559        1.62711       -5.95624
C         14.29607        2.33986       -3.17651
O         14.79529        2.61976       -1.88559
C         16.22730        2.51552       -1.80000
C         16.66560        2.90975       -0.40021
C         18.18849        2.84667       -0.22124
C         18.63886        3.25072        1.18474
H          0.87394       -0.30674        2.13829
H          0.64112       -0.00293        0.40682
H          0.76614        1.35816        1.53742
H          3.04075       -0.64079        0.91923
H          3.16475        0.70925        2.04251
H          2.75119        2.32192        0.15213
H          2.62737        0.97202       -0.97292
H          5.00242        0.31271       -0.45057
H          5.12690        1.65368        0.68698
H          4.69326        3.28296       -1.18442
H          4.56961        1.94364       -2.32391
H          6.95761        1.29631       -1.84337
H          7.08361        2.62146       -0.67573
H          6.65216        4.28720       -2.50091
H          6.50116        2.95293       -3.68144
H          8.69205        5.16265       -3.62612
H          8.36416        3.93546       -4.86792
H         10.83093        4.62918       -4.67668
H         10.37091        3.41139       -2.03902
H         10.67712        5.00322       -2.31702
H         12.64784        3.86331       -1.40146
H         12.91174        4.66995       -2.98044
H         12.33361        1.67380       -2.53853
H         10.47911        1.69305       -3.81138
H         11.79396        3.51608       -6.68039
H         10.08866        3.95275       -6.84908
H         11.59159        1.96372       -8.62075
H          8.77956        3.17755       -8.94214
H          9.15184        1.45425       -8.73908
H          9.65779        2.29845      -10.20533
H         10.82047        4.89672       -9.10302
H         11.60033        3.82005      -10.27550
H         12.46396        4.28959       -8.79722
H         12.33269        0.97748       -6.32693
H         10.92301        0.32193       -7.21285
H         11.42911       -1.05857       -5.44751
H          8.29556        2.47531       -6.23024
H          8.60750        1.23833       -4.98377
H          8.74181        0.83817       -6.69141
H         14.70647        3.03940       -3.93292
H         14.53657        1.31129       -3.50332
H         16.68604        3.17923       -2.55843
H         16.53272        1.47810       -2.03499
H         16.17354        2.24597        0.32907
H         16.30783        3.93146       -0.19006
H         18.67161        3.50247       -0.96462
H         18.54128        1.82550       -0.44158
H         18.33212        4.27983        1.42325
H         19.73141        3.20014        1.28159
H         18.20656        2.58968        1.94997
