65

N          3.83764       -2.16528        2.61971
C          4.74221       -1.21837        1.95758
C          5.15563       -1.74551        0.57489
C          5.96018       -3.04582        0.67214
C          6.12634       -3.79060       -0.66366
P          7.15080       -2.96407       -1.94323
C          8.87215       -3.57964       -1.95736
C          9.84359       -2.64051       -1.22540
O          9.23628       -2.37214        0.04933
C          9.82073       -1.25049        0.74655
C          9.17035       -1.09508        2.09690
C          8.56026        0.11372        2.45739
C          8.00090        0.27699        3.72930
C          8.03483       -0.77589        4.64661
C          8.63471       -1.98969        4.29218
C          9.20543       -2.14581        3.02828
C         11.22294       -3.28715       -1.11089
C          6.30739       -3.19782       -3.57319
C          6.01966       -1.89709       -4.35102
P          7.58275       -1.12243       -4.87935
O          8.59789       -1.21197       -3.79495
O          8.10091       -1.90110       -6.17849
C          7.43573       -1.82292       -7.48167
C          8.33270       -2.47875       -8.50911
O          7.11458        0.33335       -5.32956
C          8.12147        1.38468       -5.56875
C          7.41557        2.59159       -6.14284
H          2.88206       -2.05573        2.27828
H          3.80767       -1.99765        3.62437
H          5.64116       -1.11036        2.58242
H          4.31767       -0.20385        1.83809
H          5.73039       -0.95577        0.06239
H          4.24300       -1.91428       -0.02561
H          5.41996       -3.72411        1.34975
H          6.94273       -2.85333        1.12489
H          5.13951       -3.95623       -1.12463
H          6.57558       -4.78420       -0.50893
H          7.16187       -1.58300       -1.67735
H          9.17644       -3.68276       -3.00635
H          8.86119       -4.57240       -1.48049
H          9.91163       -1.70289       -1.80418
H          9.69269       -0.33221        0.14533
H         10.90419       -1.42172        0.87243
H          8.53347        0.93921        1.74226
H          7.53953        1.22670        4.00366
H          7.60220       -0.65010        5.64006
H          8.66787       -2.81127        5.00882
H          9.68584       -3.08841        2.75976
H         11.17012       -4.22176       -0.53484
H         11.93597       -2.61459       -0.61783
H         11.62555       -3.51004       -2.10830
H          5.36507       -3.72162       -3.36020
H          6.92797       -3.88344       -4.16936
H          5.46967       -1.17153       -3.73463
H          5.38487       -2.12105       -5.22038
H          7.24908       -0.76592       -7.71978
H          6.46525       -2.34042       -7.41219
H          9.29818       -1.96178       -8.57561
H          7.84980       -2.43680       -9.49484
H          8.51526       -3.53195       -8.26035
H          8.88253        0.99205       -6.25957
H          8.60484        1.60480       -4.60703
H          6.94117        2.35878       -7.10484
H          8.14892        3.39266       -6.30812
H          6.64877        2.96666       -5.45325
