76

C          3.93493        0.47903       -0.36377
C          4.18672        0.27853       -1.86182
N          4.25382       -1.12781       -2.27920
C          3.18828       -1.84087       -2.72410
O          3.23885       -3.04362       -3.00016
C          1.84405       -1.08510       -2.90061
C          0.82393       -2.00592       -3.46729
N          0.39954       -1.95161       -4.71471
N         -0.49168       -2.97374       -4.83094
C         -0.61978       -3.62904       -3.68165
N          0.21223       -3.04814       -2.79818
C          0.37196       -3.44330       -1.39292
C         -0.62014       -2.71833       -0.47242
O         -1.91169       -3.06723       -0.97094
C         -2.95325       -2.08353       -0.76526
C         -3.38468       -1.93973        0.67310
C         -3.12687       -0.75972        1.38229
C         -3.46952       -0.65195        2.73331
C         -4.07366       -1.72941        3.38531
C         -4.34629       -2.90750        2.68067
C         -4.00764       -3.01067        1.33197
C         -0.37050       -3.14156        0.97728
C         -1.14874       -3.24198       -6.11826
C         -2.02362       -2.07368       -6.57556
C         -2.59329       -2.36909       -7.96600
S         -3.75085       -1.10831       -8.54886
C         -5.29728       -1.65377       -7.80659
S         -5.40400       -3.00619       -6.83080
N         -6.34481       -0.86624       -8.14311
C         -6.26841        0.33366       -8.98589
C         -6.91880        1.51516       -8.25845
O         -8.25652        1.22659       -7.87549
C         -8.30142        0.08579       -7.01857
C         -7.71403       -1.15052       -7.69483
C          5.54291       -1.84184       -2.16155
C          5.68402       -2.69447       -0.89881
H          3.84271        1.54992       -0.13733
H          4.75708        0.07777        0.24115
H          3.00764       -0.01662       -0.04197
H          5.13848        0.74688       -2.15048
H          3.41232        0.79040       -2.44830
H          1.95001       -0.24957       -3.60520
H          1.49832       -0.66182       -1.94525
H         -1.27044       -4.47299       -3.48340
H          1.41438       -3.25758       -1.11199
H          0.20153       -4.52649       -1.33669
H         -0.47628       -1.62312       -0.57364
H         -3.78062       -2.44242       -1.39352
H         -2.61655       -1.10781       -1.16125
H         -2.65150        0.08223        0.87271
H         -3.26387        0.27143        3.27592
H         -4.33919       -1.65110        4.43996
H         -4.82816       -3.74490        3.18685
H         -4.21430       -3.93319        0.78572
H         -0.58998       -4.21012        1.10548
H         -1.00652       -2.57777        1.66626
H          0.67822       -2.96279        1.25647
H         -1.74407       -4.15569       -5.98622
H         -0.34557       -3.45238       -6.83949
H         -1.42888       -1.14992       -6.59377
H         -2.85328       -1.94159       -5.86625
H         -3.13684       -3.32615       -7.97880
H         -1.80399       -2.38770       -8.73247
H         -6.79280        0.13582       -9.93580
H         -5.22405        0.57592       -9.21591
H         -6.96278        2.38759       -8.92391
H         -6.31176        1.77671       -7.36860
H         -9.35953       -0.08081       -6.77867
H         -7.75164        0.29440       -6.08002
H         -8.31772       -1.42116       -8.57751
H         -7.68004       -2.00629       -7.01094
H          6.32905       -1.07546       -2.20419
H          5.64236       -2.47820       -3.05095
H          5.62013       -2.09102        0.01552
H          6.66207       -3.19424       -0.90274
H          4.91163       -3.47276       -0.86549
