54

F          2.31067        1.76647       -2.44145
C          3.11997        1.28880       -1.41515
C          2.99616       -0.23859       -1.39962
C          3.95808       -0.91380       -0.41224
N          3.98841       -2.44682       -0.71673
C          5.00728       -2.63272       -1.80439
C          5.76939       -1.27761       -1.79735
O          5.31623       -0.59658       -0.62868
C          7.32526       -1.33786       -1.84029
C          8.20038       -1.20571       -0.52139
C          8.06983       -2.37520        0.55218
C          9.23818       -3.43885        0.69205
C         10.64964       -3.09285        1.34109
C         10.77116       -2.47084        2.79249
C         10.17536       -3.19495        4.06604
C         10.68802       -4.63797        4.43425
F         12.02681       -4.67840        4.46939
F         10.20418       -4.95331        5.64766
F         10.23990       -5.54585        3.54775
F         10.47199       -2.38483        5.11055
F          8.81687       -3.25667        3.94776
F         12.09903       -2.31507        3.00203
F         10.19787       -1.23414        2.75345
F         11.32773       -4.26803        1.33360
F         11.29362       -2.22633        0.52583
F          8.70292       -4.45283        1.42462
F          9.49427       -3.90728       -0.55528
F          7.80462       -1.83813        1.76316
F          6.96202       -3.12486        0.20956
F          9.48282       -1.12104       -0.93722
F          7.87617       -0.03837        0.08430
F          7.69119       -2.48826       -2.48402
F          7.73074       -0.28788       -2.61085
C          3.60143       -0.67610        1.05511
C          4.52425       -1.33567        2.07563
C          4.10875       -0.97606        3.51122
O          4.14339        0.43621        3.68030
O          4.43101       -2.77475        1.86563
H          2.77698        1.74577       -0.47480
H          4.15437        1.60754       -1.61400
H          3.17756       -0.59308       -2.42674
H          1.96194       -0.51645       -1.14440
H          3.06323       -2.80122       -0.98194
H          4.27407       -2.88924        0.20690
H          4.49954       -2.80260       -2.75836
H          5.63842       -3.49263       -1.57445
H          5.50985       -0.70798       -2.70547
H          2.56080       -0.99907        1.22106
H          3.62763        0.40559        1.24548
H          5.55799       -1.00203        1.90228
H          4.76870       -1.49643        4.22493
H          3.07927       -1.32658        3.69408
H          4.90542        0.68263        4.22452
H          5.12937       -3.22170        2.37258
