65

C          0.36005       -1.22853        0.39588
C          1.86169       -1.35492        0.66517
C          2.50620       -0.04541        1.13214
C          4.01070       -0.15954        1.39654
C          4.64738        1.14424        1.88798
C          6.15577        1.03557        2.13377
C          6.78361        2.33629        2.64465
C          8.29196        2.23218        2.88965
C          8.90866        3.53807        3.40403
C         10.42497        3.43884        3.62050
C         11.02380        4.68298        4.26933
O         12.41090        4.58552        4.55823
C         13.21229        4.85934        3.42953
N         13.05406        6.26520        3.02899
C         11.78629        6.72432        3.05091
N         11.48413        7.98476        2.66507
C         10.15096        8.53031        2.70632
C          9.43793        8.69729        1.51339
C          8.15775        9.25471        1.55499
C          7.59253        9.62470        2.77876
C          8.30886        9.44839        3.96660
C          9.59647        8.90799        3.93588
N         10.80761        5.89764        3.44462
C         14.22572        7.14435        2.96547
C         14.55016        7.82950        4.31332
C         15.60127        8.86805        4.14802
C         16.85590        8.83074        4.61326
F         17.33342        7.81286        5.32271
F         17.75095        9.78119        4.43589
F         15.21807        9.95391        3.41856
H         -0.07490       -2.18668        0.08093
H          0.15659       -0.49525       -0.39857
H         -0.18054       -0.89854        1.29541
H          2.37254       -1.70622       -0.24729
H          2.03566       -2.13406        1.42648
H          1.99904        0.30176        2.04987
H          2.32689        0.73846        0.37494
H          4.51982       -0.49104        0.47466
H          4.19066       -0.95410        2.14176
H          4.14854        1.46426        2.81971
H          4.45481        1.94545        1.15254
H          6.65769        0.72961        1.19913
H          6.35095        0.22699        2.85974
H          6.28187        2.64075        3.57984
H          6.58742        3.14520        1.91857
H          8.79738        1.93400        1.95499
H          8.49425        1.42623        3.61535
H          8.41837        3.82212        4.35209
H          8.68083        4.34158        2.68111
H         10.92952        3.23572        2.66216
H         10.65583        2.59897        4.29385
H         10.54841        4.86180        5.24798
H         12.95732        4.20479        2.57854
H         14.25417        4.69463        3.72362
H         12.18717        8.49535        2.13939
H          9.88580        8.39964        0.56423
H          7.60180        9.39736        0.62823
H          6.59326       10.05908        2.80693
H          7.87346        9.74905        4.91937
H         10.17771        8.79395        4.85191
H          9.85661        6.25044        3.36011
H         14.08763        7.89518        2.17420
H         15.07207        6.52872        2.63461
H         14.87544        7.08377        5.05077
H         13.63906        8.30642        4.71132
