64

Br         3.24872        0.28766        1.72551
C          4.60038        0.16305        0.28859
C          3.94061        0.31137       -1.06606
C          3.35992        1.69587       -1.39942
C          1.83728        1.88864       -1.18488
C          0.94325        0.82016       -1.83146
C          1.07328        0.78683       -3.34836
N          0.89726        2.13838       -4.07256
C          1.49226        3.31731       -3.27831
C          1.37569        3.23945       -1.75650
C         -0.56748        2.38423       -4.45118
C         -1.62015        2.36189       -3.35136
C         -3.00822        2.68226       -3.95201
C         -4.09410        2.57674       -2.90480
C         -4.45780        3.69013       -2.13443
C         -5.42898        3.57776       -1.13708
C         -6.04795        2.34837       -0.89700
C         -5.69530        1.23337       -1.66159
C         -4.72484        1.34886       -2.65860
C          1.69534        1.97850       -5.36941
C          1.67995        3.18247       -6.30995
C          2.58627        2.99696       -7.54112
C          4.07239        3.51984       -7.44529
C          5.10404        2.87322       -6.44067
C          5.46928        1.34850       -6.58661
F          5.76160        1.03739       -7.85254
F          6.52561        1.08470       -5.80551
F          4.43525        0.57403       -6.17156
F          6.24821        3.57483       -6.56853
F          4.62952        3.05766       -5.16132
F          4.61233        3.45039       -8.68155
F          3.98981        4.83423       -7.07501
F          2.60866        1.68693       -7.94412
F          2.04011        3.72433       -8.56034
Br         5.35828       -0.12947       -2.40885
H          5.06214       -0.81939        0.41501
H          5.32987        0.95528        0.48860
H          3.21707       -0.49714       -1.21778
H          3.61898        1.91319       -2.44409
H          3.89083        2.45585       -0.80549
H          1.63481        1.88305       -0.10568
H         -0.09484        0.99181       -1.52011
H          1.19326       -0.19099       -1.47927
H          0.34650        0.10673       -3.81113
H          2.07621        0.43685       -3.62477
H          1.00367        4.22088       -3.66178
H          2.54844        3.35925       -3.56884
H          0.34653        3.44007       -1.43044
H          1.98820        4.06700       -1.36671
H         -0.80019        1.61521       -5.20272
H         -0.58045        3.36006       -4.95411
H         -1.40172        3.09753       -2.56539
H         -1.67232        1.37507       -2.87160
H         -3.22006        1.98487       -4.77850
H         -2.99738        3.69534       -4.38432
H         -3.98825        4.65826       -2.32581
H         -5.71019        4.45445       -0.55263
H         -6.81072        2.26164       -0.12298
H         -6.18402        0.27398       -1.48854
H         -4.46545        0.47609       -3.26320
H          1.28513        1.09412       -5.87234
H          2.71169        1.73945       -5.04702
H          1.98517        4.11129       -5.81206
H          0.67933        3.34506       -6.73042
