62

C          0.73795       -0.84632       -1.41237
C          2.23635       -0.95091       -1.14352
S          3.04907        0.55470       -1.82210
C          4.67483        0.25766       -1.33748
N          5.19349       -0.72905       -0.64063
N          6.55587       -0.47688       -0.55283
C          6.77166        0.63962       -1.17685
O          5.62677        1.18408       -1.72154
C          8.07000        1.36558       -1.33278
C          8.26762        1.67914       -2.78038
N          8.10403        2.93441       -3.04639
C          7.79420        3.73480       -1.82935
C          8.16790        2.78567       -0.67485
C          7.36845        2.98465        0.61431
C          7.61082        4.37390        1.22003
C          6.90652        4.56012        2.56610
S          7.18379        6.24537        3.15498
O          8.57864        6.39778        3.51554
O          6.53680        7.14176        2.22959
O          6.30423        6.24607        4.51571
C          8.14617        3.53417       -4.39013
C          9.40070        4.40852       -4.54689
C          9.55586        5.04333       -5.94059
C         10.48518        4.29597       -6.97582
C         10.13896        2.83701       -7.47235
C          8.82328        2.50716       -8.28174
C          8.47848        3.23218       -9.64353
C          9.50101        3.11767      -10.83614
F          9.82769        1.83325      -11.05822
F          8.92059        3.62184      -11.93406
F         10.61893        3.81725      -10.57657
F          7.31498        2.66807      -10.05562
F          8.25880        4.54606       -9.39254
F          8.86837        1.17355       -8.51379
F          7.76071        2.74712       -7.44931
F         11.18893        2.41390       -8.20451
F         10.06895        2.04616       -6.34165
F         10.62906        5.09210       -8.05563
F         11.70049        4.17244       -6.36099
F          8.33327        5.27029       -6.51167
F         10.15632        6.25946       -5.77322
H          0.24902       -1.75922       -1.04743
H          0.51731       -0.75739       -2.48473
H          0.28762        0.00790       -0.88999
H          2.68799       -1.81860       -1.63954
H          2.46573       -0.99675       -0.07185
H          8.83790        0.67357       -0.95778
H          8.45645        0.95638       -3.57721
H          6.72119        3.98480       -1.86591
H          8.36968        4.66736       -1.84184
H          9.23606        2.94192       -0.45176
H          7.66273        2.20213        1.33088
H          6.29342        2.84029        0.41788
H          7.25539        5.15867        0.53284
H          8.69213        4.53627        1.35656
H          7.29443        3.88207        3.33880
H          5.81675        4.43806        2.49175
H          6.92724        6.27194        5.26806
H          7.23295        4.13355       -4.50971
H          8.11674        2.71536       -5.11502
H         10.30738        3.83426       -4.31499
H          9.36094        5.25915       -3.85262
