67

C          1.56507        1.30756        0.10903
C          2.20909        0.27997       -0.44959
C          2.95789       -0.77147        0.32346
C          4.46138       -0.72507        0.02252
C          5.15951        0.57869        0.47596
N          6.44970        0.10155        1.00423
C          6.38535       -1.22995        1.23599
N          7.34565       -1.90900        1.86185
C          7.34355       -3.35884        2.05988
C          8.13587       -3.68652        3.33014
C          8.41788       -5.17435        3.57546
C          7.37955       -6.00113        4.43136
C          5.88695       -6.19286        3.95280
C          5.52208       -6.91247        2.59548
C          5.96954       -8.39870        2.29424
C          5.50041       -9.53931        3.27395
F          4.17322       -9.47605        3.47690
F          5.80314      -10.72062        2.71479
F          6.13182       -9.44585        4.45568
F          5.44717       -8.68115        1.07203
F          7.32044       -8.44056        2.20755
F          4.16967       -6.85839        2.50924
F          6.03015       -6.15162        1.57554
F          5.24033       -6.84227        4.94535
F          5.33835       -4.93460        3.84974
F          7.90722       -7.22577        4.65294
F          7.27505       -5.35126        5.62945
F          8.64135       -5.83313        2.39595
F          9.57536       -5.25600        4.30459
N          5.22753       -1.74428        0.77658
C          7.38100        0.99433        1.67927
O          8.67590        0.46359        1.50680
C          9.71964        1.29134        2.08098
C         11.03835        0.55037        1.94997
C         12.23144        1.37966        2.44351
C         13.56249        0.62554        2.34558
C         14.76712        1.45261        2.80882
C         16.08830        0.68298        2.74007
H          1.03382        2.04266       -0.49476
H          1.52584        1.43978        1.19268
H          2.20934        0.17278       -1.53943
H          2.58082       -1.77352        0.05708
H          2.80359       -0.64141        1.40569
H          4.63019       -0.88425       -1.05617
H          4.57806        1.08306        1.26673
H          5.31217        1.28414       -0.34916
H          8.21405       -1.37492        1.98329
H          7.78964       -3.86494        1.19037
H          6.30520       -3.69315        2.15769
H          7.64626       -3.26465        4.21772
H          9.13496       -3.22896        3.25981
H          5.14012       -2.73027        0.55313
H          7.13254        1.08267        2.75889
H          7.27796        1.98949        1.21136
H          9.47971        1.50048        3.13974
H          9.74316        2.25264        1.53749
H         11.18559        0.27401        0.89366
H         10.98003       -0.39171        2.52182
H         12.06291        1.68799        3.48972
H         12.29555        2.31181        1.85658
H         13.72285        0.30050        1.30272
H         13.50290       -0.29974        2.94545
H         14.59484        1.79847        3.84199
H         14.83788        2.36464        2.19264
H         16.06691       -0.20676        3.38683
H         16.93145        1.30691        3.06491
H         16.30257        0.34288        1.71613
