47

O          1.21514        0.21121        0.47088
C          2.62431       -0.00886        0.52053
C          2.91347       -1.51190        0.39852
C          2.53064       -2.04116       -1.00794
N          2.91963       -3.47260       -1.14662
C          1.93114       -4.30087       -1.11680
C          0.61904       -3.62025       -1.01970
C          1.00284       -2.12605       -1.35134
C          0.77204       -1.79260       -2.74944
C          0.59066       -1.52415       -3.91477
C         -0.47353       -4.30051       -1.86050
C         -1.84089       -3.63939       -1.69230
O         -2.75414       -4.45597       -2.39977
C         -3.99854       -3.85322       -2.68460
C         -4.63581       -4.56044       -3.88480
C         -4.10560       -4.19533       -5.32018
C         -2.61912       -4.47614       -5.75270
C         -2.14738       -5.96253       -5.75723
F         -0.97274       -6.02294       -6.44927
F         -1.90243       -6.38283       -4.48462
F         -2.52641       -4.02997       -7.03660
F         -1.76821       -3.72003       -4.99327
F         -4.88805       -4.86179       -6.21611
F         -4.30106       -2.85372       -5.48461
F         -4.57407       -5.91663       -3.73971
F         -5.95812       -4.20195       -3.89887
C          4.39672       -1.76796        0.71181
H          1.03846        1.15709        0.59113
H          3.04103        0.33527        1.48248
H          3.14510        0.54059       -0.28686
H          2.28911       -2.03070        1.14689
H          3.07614       -1.47262       -1.77579
H          3.89592       -3.76824       -1.20269
H          2.10045       -5.37949       -1.16715
H          0.31765       -3.67791        0.04684
H          0.45230       -1.42860       -0.70713
H          0.41274       -1.28148       -4.94314
H         -0.56064       -5.35309       -1.55091
H         -0.20000       -4.29146       -2.92422
H         -1.83624       -2.61410       -2.10539
H         -2.11499       -3.57593       -0.61887
H         -3.89590       -2.78053       -2.92367
H         -4.70829       -3.96035       -1.84468
H         -2.88568       -6.62646       -6.23241
H          5.05648       -1.32044       -0.04700
H          4.63443       -2.83801        0.78980
H          4.66191       -1.32424        1.67958
