51

C          1.27233        0.39810       -0.02261
C          2.64536       -0.27870       -0.06412
C          3.31200       -0.31877        1.31749
C          4.68247       -0.97627        1.28597
O          5.22995       -1.12653        2.64597
C          5.84932       -0.06292        3.16072
O          6.01064        1.01376        2.61778
C          6.45463       -0.35504        4.56626
C          7.95272       -0.66689        4.31726
C          8.77774       -0.98064        5.57029
C         10.19617       -1.46478        5.19935
C         10.99397       -1.77598        6.37650
C         11.63387       -2.03198        7.37040
O          5.91176       -1.49658        5.22645
C          4.55852       -1.34923        5.63192
C          4.39441       -0.17970        6.59554
N          4.89426        1.11576        5.97181
C          6.32474        0.89444        5.44726
C          3.96409        1.80640        5.00987
C          2.73773        1.26440        4.64884
C          1.94463        2.00632        3.76193
N          2.29779        3.19159        3.25917
C          3.47688        3.69984        3.64303
C          4.35012        3.05130        4.52020
H          0.81038        0.42095       -1.01783
H          1.34901        1.43681        0.33167
H          0.58316       -0.13730        0.64779
H          3.30040        0.25710       -0.76992
H          2.54407       -1.30395       -0.45577
H          2.66690       -0.86954        2.02337
H          3.41582        0.70821        1.69789
H          5.40057       -0.39877        0.68917
H          4.63753       -2.00768        0.91580
H          8.38936        0.17368        3.75680
H          7.96544       -1.53738        3.64276
H          8.28030       -1.75769        6.16648
H          8.88373       -0.09455        6.21579
H         10.71185       -0.69623        4.59868
H         10.12555       -2.35987        4.55836
H         12.21603       -2.26884        8.23623
H          4.29345       -2.27224        6.16434
H          3.89887       -1.26356        4.75341
H          5.01991       -0.33422        7.48491
H          3.35657       -0.03008        6.91470
H          4.99921        1.78153        6.74914
H          6.94334        0.78542        6.34548
H          6.61760        1.78807        4.88864
H          2.37423        0.30488        5.00692
H          0.97957        1.60664        3.44089
H          3.74578        4.67449        3.22989
H          5.29766        3.52078        4.78495
