82

C          0.63072       -4.54022       -2.36137
C          2.15665       -4.64184       -2.42776
C          2.79103       -3.60083       -3.35583
C          4.31886       -3.68365       -3.43507
C          4.93143       -2.61172       -4.34083
C          6.45897       -2.66926       -4.44710
C          7.02846       -1.55387       -5.32836
C          8.55288       -1.57102       -5.47888
C          9.06188       -0.41198       -6.34229
C         10.58258       -0.38943       -6.53608
C         11.01708        0.78655       -7.39417
O         12.44510        0.76087       -7.55432
C         12.90645        1.74584       -8.45193
C         14.43135        1.59161       -8.56587
O         15.01204        2.52867       -9.47352
C         14.57082        2.34123      -10.80509
C         15.50071        3.12671      -11.73347
C         15.08601        2.94725      -13.20079
O         14.52158        1.88663      -13.54908
N         15.33572        3.94535      -14.08189
C         14.90467        3.78325      -15.48512
C         16.05328        3.55941      -16.47587
C         16.90088        2.31302      -16.19880
C         17.98448        2.09225      -17.25627
C         16.12498        5.13961      -13.79263
N         14.56804        0.91475      -11.13946
C         14.79999       -0.06193      -10.26137
N         15.01657       -1.33132      -10.65033
N         14.83186        0.23308       -8.94073
C         15.48041       -0.65870       -7.96357
C         14.54620       -1.68306       -7.31012
N         13.91065       -2.54948       -8.33125
H          0.20438       -5.29220       -1.68338
H          0.17697       -4.69190       -3.35238
H          0.31163       -3.55028       -2.00215
H          2.44596       -5.65259       -2.76229
H          2.57812       -4.52769       -1.41451
H          2.49918       -2.58994       -3.01942
H          2.36780       -3.71201       -4.37017
H          4.61471       -4.68480       -3.79532
H          4.74340       -3.59048       -2.41981
H          4.63318       -1.61438       -3.97195
H          4.49593       -2.69848       -5.35212
H          6.76440       -3.65191       -4.84769
H          6.90107       -2.60265       -3.43754
H          6.71972       -0.57745       -4.91546
H          6.56745       -1.61368       -6.33003
H          8.87050       -2.53139       -5.92185
H          9.02519       -1.52363       -4.48246
H          8.74138        0.54085       -5.88722
H          8.56963       -0.45548       -7.32939
H         10.91267       -1.32834       -7.01375
H         11.09079       -0.33337       -5.55991
H         10.71614        1.74388       -6.92860
H         10.53977        0.73749       -8.39262
H         12.69138        2.76958       -8.09141
H         12.41749        1.62402       -9.43823
H         14.88989        1.80325       -7.59158
H         13.53892        2.72028      -10.93307
H         16.53504        2.77340      -11.59619
H         15.46776        4.17288      -11.40770
H         14.34772        4.69444      -15.75444
H         14.20967        2.93697      -15.50507
H         16.70151        4.45102      -16.51963
H         15.59496        3.48131      -17.47518
H         16.24157        1.43196      -16.14360
H         17.37160        2.39916      -15.20436
H         17.54404        1.95559      -18.25460
H         18.58583        1.20062      -17.03495
H         18.67095        2.94959      -17.31400
H         16.08909        5.40503      -12.73273
H         15.71626        5.98125      -14.36639
H         17.17891        5.00481      -14.08039
H         14.47205        0.79152      -12.16749
H         15.01126       -1.54240      -11.64149
H         14.70144       -2.05843       -9.96653
H         15.92460       -0.01827       -7.18837
H         16.30409       -1.17475       -8.47804
H         13.79438       -1.16230       -6.70260
H         15.15837       -2.29824       -6.63543
H         12.92948       -2.29069       -8.44124
H         13.91858       -3.52497       -8.03585
