42

C          3.99124        5.19043        5.06202
C          3.86704        4.40285        3.75342
C          4.68374        3.11656        3.79508
O          4.48821        2.28593        2.61852
C          5.19844        2.69766        1.44901
C          6.68054        2.37103        1.50973
N          7.43854        3.45082        1.49915
N          8.75894        3.32457        1.48065
C          9.41936        2.14269        1.38326
C          8.68497        0.98151        1.39580
C          7.26949        1.03641        1.53879
N          6.57424       -0.11018        1.68756
N          7.26057       -1.31697        1.54308
N          5.15656       -0.20073        1.67378
C         10.92581        2.16948        1.30214
C         11.54770        3.48650        0.84002
O         11.00990        4.58167        0.95848
O         12.76216        3.27929        0.34507
C         13.52801        4.46805       -0.08489
C         13.22467        4.81345       -1.52911
H          3.39210        6.10841        5.02016
H          5.03187        5.48379        5.26264
H          3.63646        4.60288        5.92089
H          4.19632        5.03409        2.91287
H          2.81515        4.14177        3.56209
H          4.35958        2.47982        4.63044
H          5.75907        3.32862        3.93049
H          5.11627        3.77972        1.27642
H          4.72273        2.17751        0.60622
H          9.32738        4.18951        1.41314
H          9.17403        0.01463        1.31753
H          6.89046       -1.81525        0.72711
H          7.11846       -1.89209        2.37826
H          4.76812        0.58140        2.24200
H          4.92892       -1.07148        2.16096
H         11.28247        1.34766        0.66875
H         11.33812        1.97449        2.30825
H         14.56878        4.15687        0.05795
H         13.28861        5.29128        0.59931
H         13.43086        3.96432       -2.19298
H         13.86838        5.64855       -1.83798
H         12.18165        5.12852       -1.65772
