111

O          0.09532       -0.78034       -1.98887
C          1.25237       -1.04788       -1.19561
C          2.52718       -0.59463       -1.96858
C          2.35389       -0.95654       -3.45940
N          2.16412        0.12459       -4.28427
C          1.99674        0.12804       -5.60957
C          1.77747        1.46517       -6.26676
O          0.41255        1.51035       -6.63773
C          0.00934        2.48500       -7.54940
C          0.84079        3.53955       -7.92840
C          0.40163        4.51025       -8.84438
C          1.31655        5.63280       -9.26103
C         -0.89264        4.38748       -9.35446
C         -1.71573        3.33088       -8.95736
C         -1.30306        2.34994       -8.04980
C         -2.26579        1.24007       -7.64992
C         -1.78262       -0.16805       -8.04747
C         -2.66561        1.30479       -6.16277
C          1.99914       -1.10669       -6.28336
C          2.14283       -2.29839       -5.49006
C          2.31490       -2.21397       -4.06390
C          2.40224       -3.49283       -3.27207
C          3.78513       -4.16806       -3.27618
O          3.79225       -5.04659       -2.16929
C          4.96299       -5.86097       -2.09730
C          4.85956       -6.68284       -0.82010
O          5.94927       -7.59196       -0.84844
C          6.04796       -8.51051        0.17491
C          5.24623       -8.52022        1.31761
C          5.44141       -9.51046        2.28926
C          6.40873      -10.51061        2.15341
C          7.20997      -10.46183        0.99570
C          7.04159       -9.48627        0.02221
C          6.62368      -11.61680        3.19898
C          6.49297      -13.03996        2.56305
C          5.15580      -13.64764        2.03803
C          4.21093      -14.07390        3.18180
C          4.39748      -12.71700        1.07277
C          5.55285      -14.92611        1.26686
C          8.08377      -11.50657        3.71270
C          5.70880      -11.44029        4.42373
C          2.09558       -3.54348       -6.17446
C          1.93294       -3.59734       -7.54378
C          1.80422       -2.41597       -8.31230
C          1.83218       -1.18792       -7.69346
C          2.76624        0.95411       -1.68146
C          4.08101        1.53494       -2.23846
C          1.59518        1.93866       -1.93019
C          3.74349       -1.32956       -1.34646
H         -0.69285       -1.04947       -1.49226
H          1.31667       -2.12210       -0.95716
H          1.22165       -0.50342       -0.23473
H          2.10303        1.03079       -3.81379
H          2.44136        1.56568       -7.14403
H          2.03865        2.28031       -5.56446
H          1.84228        3.63995       -7.50743
H          1.84230        6.06728       -8.39916
H          0.76023        6.43646       -9.75862
H          2.08433        5.27672       -9.96522
H         -1.26742        5.12575      -10.06493
H         -2.72679        3.26103       -9.36437
H         -3.18037        1.43567       -8.23332
H         -0.93171       -0.49176       -7.43465
H         -1.47974       -0.20114       -9.10327
H         -2.59188       -0.89837       -7.90625
H         -1.81672        1.07192       -5.50554
H         -3.46450        0.57948       -5.95264
H         -3.03780        2.30358       -5.89837
H          1.65012       -4.20258       -3.64287
H          2.13966       -3.31581       -2.22666
H          4.59159       -3.41397       -3.18854
H          3.96253       -4.71910       -4.21967
H          5.87465       -5.23532       -2.08178
H          5.02347       -6.53381       -2.97220
H          3.89473       -7.22030       -0.79891
H          4.90762       -6.02175        0.06380
H          4.46883       -7.77284        1.47208
H          4.79628       -9.49054        3.16660
H          7.98637      -11.21173        0.83796
H          7.66799       -9.46700       -0.87009
H          6.89082      -13.75151        3.30736
H          7.20790      -13.07350        1.72469
H          3.76346      -13.21872        3.70214
H          4.73862      -14.68431        3.92956
H          3.38409      -14.67961        2.78247
H          4.01889      -11.81726        1.57448
H          3.53416      -13.24800        0.64405
H          5.03531      -12.38601        0.24084
H          6.09934      -15.62991        1.91242
H          6.19728      -14.68891        0.40740
H          4.66072      -15.44513        0.88689
H          8.81516      -11.69704        2.91549
H          8.26480      -12.23862        4.51310
H          8.27750      -10.50194        4.11395
H          4.64351      -11.40445        4.16568
H          5.95398      -10.51458        4.96467
H          5.85093      -12.27690        5.12115
H          2.18957       -4.47371       -5.61883
H          1.90053       -4.56674       -8.04196
H          1.67161       -2.48252       -9.39186
H          1.70566       -0.27711       -8.27674
H          2.88679        0.94055       -0.58701
H          4.11271        1.58110       -3.33798
H          4.96341        0.97275       -1.91250
H          4.20077        2.56497       -1.87705
H          1.57015        2.37929       -2.94393
H          1.71610        2.80285       -1.26393
H          0.61210        1.49294       -1.74631
H          3.57668       -2.40332       -1.21850
H          3.94498       -0.91681       -0.34870
H          4.64821       -1.19829       -1.95051
