123

C         34.33422       -6.30007       14.23439
C         33.86326       -4.87059       13.95425
C         32.34688       -4.75512       13.75954
C         31.87362       -3.33050       13.45340
C         30.36269       -3.21305       13.22321
C         29.90817       -1.78848       12.88835
C         28.40777       -1.65901       12.60270
C         27.98752       -0.23310       12.23066
C         26.50253       -0.08033       11.88289
C         26.13582        1.34333       11.45036
C         24.66771        1.53127       11.05047
C         24.37445        2.94566       10.53822
C         22.92472        3.18307       10.09806
C         22.72108        4.57978        9.50047
C         21.29044        4.88870        9.04336
C         21.18342        6.27343        8.38923
C         19.79659        6.69912        7.88202
C         18.68877        6.78483        8.93628
N         19.14126        7.51508       10.20240
C         18.88952        9.01706       10.30012
C         19.36211        9.79739        9.06281
O         18.54774        9.61002        7.92545
C         17.49449       10.58724        7.74364
C         17.99361       11.97325        7.34569
C         18.87833       11.99302        6.09473
C         19.32297       13.40537        5.70081
C         20.26199       13.44236        4.49077
C         20.70956       14.85844        4.11263
C         21.68117       14.90523        2.92899
C         22.12869       16.32347        2.55997
C         23.13111       16.37244        1.40113
C         23.56439       17.79319        1.03137
C         19.63487        9.52521       11.54680
O         19.32091        8.82366       12.73712
C         19.59106        7.43434       12.60360
C         18.72234        6.81024       11.50865
C         17.23069        6.88647       11.85636
C         16.24784        6.22227       10.89123
O         16.68341        4.90252       10.61623
Si        15.85354        3.82586        9.59892
C         16.71548        2.19195        9.87870
C         14.04040        3.77719       10.07389
C         16.05223        4.41379        7.81993
H         35.42388       -6.34717       14.36707
H         34.07130       -6.97633       13.40722
H         33.87130       -6.70243       15.14775
H         34.37279       -4.48476       13.05503
H         34.17417       -4.21051       14.78182
H         31.83377       -5.12674       14.66409
H         32.03469       -5.42678       12.94017
H         32.40466       -2.95694       12.55994
H         32.17055       -2.66104       14.28008
H         29.82520       -3.57032       14.11916
H         30.06654       -3.89163       12.40380
H         30.47305       -1.42739       12.01059
H         30.18164       -1.11329       13.71838
H         27.83345       -1.99650       13.48332
H         28.13320       -2.34538       11.78237
H         28.59276        0.10527       11.37091
H         28.24005        0.45012       13.06071
H         25.88627       -0.37588       12.75005
H         26.24311       -0.78510       11.07343
H         26.77706        1.63268       10.59899
H         26.38461        2.04753       12.26382
H         24.01521        1.30234       11.91126
H         24.40517        0.79844       10.26744
H         25.04463        3.16074        9.68741
H         24.64067        3.67909       11.32001
H         22.24611        3.03940       10.95753
H         22.63676        2.42163        9.35271
H         23.40233        4.70275        8.64096
H         23.03624        5.33959       10.23891
H         20.60661        4.79985        9.90753
H         20.95218        4.12480        8.32298
H         21.87263        6.31549        7.53173
H         21.60031        7.03676        9.08159
H         19.43928        5.96613        7.14173
H         19.87019        7.65292        7.34276
H         18.38089        5.79161        9.27918
H         17.81551        7.31057        8.54023
H         20.17145        7.41505       10.18652
H         17.80468        9.13642       10.42011
H         20.38802        9.49586        8.79171
H         19.41966       10.86073        9.35298
H         16.86837       10.64287        8.65446
H         16.87753       10.15523        6.94318
H         18.52686       12.44896        8.18745
H         17.09771       12.59736        7.18800
H         18.33414       11.52711        5.25504
H         19.76672       11.36177        6.26306
H         19.82394       13.88269        6.56197
H         18.43245       14.02364        5.49254
H         19.76459       12.97084        3.62520
H         21.15164       12.82252        4.70119
H         21.18278       15.33549        4.98902
H         19.82098       15.47129        3.88098
H         21.21209       14.42951        2.04984
H         22.56994       14.29298        3.16388
H         22.57491       16.80779        3.44679
H         21.24276       16.93012        2.30155
H         22.69053       15.87929        0.51800
H         24.01953       15.77453        1.66752
H         22.70586       18.40235        0.71127
H         24.29382       17.79132        0.20990
H         24.02975       18.30492        1.88716
H         19.36365       10.57408       11.72170
H         20.72943        9.48447       11.35805
H         19.37082        6.97107       13.57296
H         20.66654        7.26939       12.38270
H         19.00638        5.75896       11.35701
H         16.91932        7.92224       12.05138
H         17.15263        6.36550       12.82350
H         16.14582        6.81464        9.96145
H         15.25287        6.22223       11.36962
H         16.59665        1.85605       10.91767
H         17.79069        2.26428        9.66307
H         16.29485        1.41590        9.22375
H         13.91117        3.51314       11.13266
H         13.51517        3.01909        9.47534
H         13.53650        4.73741        9.89542
H         17.10167        4.37192        7.49412
H         15.68623        5.44116        7.68019
H         15.47430        3.77136        7.14025
