69

C          1.37594       12.81609       -4.43163
C          2.89249       12.67126       -4.28104
C          3.30413       11.62789       -3.23563
C          4.82128       11.48259       -3.08237
C          5.24366       10.46193       -2.02025
C          6.76356       10.32730       -1.88526
C          7.21078        9.33765       -0.80466
C          8.73439        9.23197       -0.69050
C          9.22158        8.27773        0.40406
C         10.75067        8.21145        0.47818
C         11.29008        7.30789        1.59478
C         12.81266        7.09913        1.53791
C         13.56745        8.41835        1.75026
N         14.98476        8.32678        1.36882
C         15.57253        8.50647        0.16527
C         14.94987        8.97864       -1.10367
C         14.22279       10.35785       -1.08352
C         14.68858       11.38174       -0.03716
C         16.19608       11.70241       -0.04227
S         16.73442       12.02804        1.64771
O         16.17100       13.27254        2.11707
O         16.55222       10.80338        2.40372
O         18.32854       12.20260        1.45867
N         16.87762        8.20111        0.28258
N         17.10654        7.84455        1.53426
N         15.97875        7.91271        2.19281
C         15.84727        7.73260        3.65570
C         17.17491        7.34994        4.28842
H          1.11605       13.57291       -5.18436
H          0.90723       13.11722       -3.48277
H          0.91261       11.86732       -4.74097
H          3.33087       13.64677       -4.00943
H          3.33621       12.40277       -5.25490
H          2.86779       10.64972       -3.50461
H          2.86171       11.89632       -2.25992
H          5.25715       12.46635       -2.83236
H          5.26009       11.19852       -4.05537
H          4.80822        9.47668       -2.26256
H          4.81395       10.75019       -1.04481
H          7.19672       11.31984       -1.66696
H          7.18894       10.02132       -2.85761
H          6.78792        8.34054       -1.01780
H          6.79076        9.64316        0.16954
H          9.15127       10.23808       -0.50220
H          9.14911        8.91112       -1.66297
H          8.81947        7.26612        0.22581
H          8.82036        8.59860        1.38065
H         11.12593        9.24358        0.60259
H         11.14286        7.85797       -0.49335
H         10.81795        6.31612        1.52300
H         11.00053        7.70830        2.58081
H         13.08748        6.68955        0.55227
H         13.13150        6.36064        2.28892
H         13.51740        8.77098        2.78864
H         13.14993        9.21091        1.12074
H         14.24715        8.21130       -1.46493
H         15.78078        8.98911       -1.82069
H         13.14417       10.19916       -0.93857
H         14.32342       10.77605       -2.09495
H         14.40708       11.03016        0.96692
H         14.12282       12.31099       -0.18358
H         16.44074       12.59004       -0.63947
H         16.82774       10.87184       -0.38525
H         18.54123       13.15360        1.53851
H         15.07906        6.96289        3.81877
H         15.48414        8.69487        4.04690
H         17.56250        6.40527        3.88940
H         17.00462        7.22732        5.36519
H         17.92668        8.13350        4.14170
