93

C          0.81895       -0.15703       -0.05993
C          2.34529       -0.04155       -0.08765
C          2.95945        0.19419        1.29670
C          4.48739        0.30980        1.28682
C          5.08536        0.55016        2.67617
C          6.61382        0.65800        2.69015
C          7.18057        0.90835        4.09048
C          8.70877        0.99589        4.14882
C          9.22807        1.23931        5.56855
C         10.75474        1.24864        5.69142
C         11.21570        1.40313        7.14349
C         12.71373        1.12883        7.34591
C         13.14346        1.45491        8.78459
C         13.57692        2.92091        8.89500
C         14.01556        3.37120       10.29581
C         12.87299        3.45106       11.32928
C         11.71052        4.35817       10.91324
C         10.68798        4.56254       12.05010
C          9.54511        5.36396       11.63576
C          8.60748        6.02984       11.26053
C         15.15866        2.44333       10.74089
C         14.76980        0.97396       10.67080
N         14.28950        0.55220        9.28986
C         13.95254       -0.93071        9.28622
C         15.19714       -1.80980        9.25197
C         14.88647       -3.31669        9.10027
C         14.11870       -3.64776        7.79484
C         12.59186       -3.80908        7.94605
C         11.93879       -4.24836        6.66742
C         10.92606       -3.66620        5.99965
C         10.21829       -2.40934        6.43399
C         10.39119       -4.27473        4.72961
C         16.19869       -4.10785        9.19679
H          0.40851       -0.32649       -1.06485
H          0.35611        0.75871        0.33742
H          0.49306       -0.99317        0.57680
H          2.64113        0.78117       -0.76039
H          2.77695       -0.95803       -0.52468
H          2.66091       -0.62798        1.97132
H          2.52775        1.11210        1.73394
H          4.78826        1.13049        0.61213
H          4.92104       -0.60961        0.85521
H          4.77417       -0.26614        3.35198
H          4.65341        1.47274        3.10263
H          6.93200        1.47025        2.01334
H          7.05075       -0.26840        2.27695
H          6.84138        0.10369        4.76707
H          6.74858        1.84055        4.49518
H          9.06248        1.79944        3.48013
H          9.14445        0.06060        3.75377
H          8.82292        0.45861        6.23664
H          8.82404        2.19443        5.94705
H         11.18032        2.05961        5.07697
H         11.16151        0.31024        5.27744
H         10.64610        0.70484        7.78073
H         10.96191        2.41518        7.50157
H         13.31408        1.73333        6.64662
H         12.90314        0.07901        7.07820
H         12.31771        1.23330        9.47973
H         12.74505        3.53370        8.52304
H         14.40469        3.08682        8.18331
H         14.43124        4.38628       10.19307
H         13.30376        3.82201       12.27407
H         12.47450        2.44786       11.56285
H         11.17763        3.93839       10.04569
H         12.09175        5.34183       10.59576
H         11.18068        5.04473       12.91167
H         10.33163        3.58243       12.41217
H          7.77547        6.62606       10.94951
H         15.46294        2.65287       11.77718
H         16.05151        2.61998       10.11823
H         13.94014        0.73666       11.35015
H         15.61253        0.32103       10.92473
H         15.07634        0.68252        8.63550
H         13.33128       -1.11368        8.40570
H         13.33681       -1.11011       10.17814
H         15.79644       -1.66858       10.16455
H         15.83260       -1.50174        8.40068
H         14.25264       -3.61403        9.95552
H         14.51372       -4.59139        7.38825
H         14.33817       -2.89181        7.01984
H         12.12676       -2.88530        8.32476
H         12.40865       -4.56983        8.72714
H         12.35179       -5.16991        6.24109
H         10.70947       -1.89239        7.26884
H          9.18490       -2.63355        6.74576
H         10.13784       -1.70448        5.59311
H         10.91545       -5.20177        4.46765
H         10.48574       -3.57397        3.88430
H          9.31743       -4.50336        4.82427
H         16.86622       -3.87463        8.35308
H         16.00094       -5.18743        9.17357
H         16.74215       -3.88897       10.12714
