42

C          1.49988        0.96776        0.23149
C          2.58445        0.43722        0.27353
C          3.91343       -0.15767        0.24614
N          4.32328       -0.77065        1.52758
C          5.09988       -0.16492        2.48474
N          5.29968       -0.95816        3.50428
N          4.62319       -2.10016        3.18893
C          3.98915       -2.00236        2.00811
C          3.19093       -3.03913        1.30338
C          1.82926       -3.45662        1.95377
C          0.88203       -2.26880        2.15658
N          1.49246       -1.28598        3.05784
O          1.25887       -4.49592        1.18554
C          4.63788       -3.21317        4.14985
C          5.57573       -4.35734        3.75136
C          5.57743       -5.43315        4.84515
C          6.46534       -6.62774        4.48694
S          6.42030       -7.83428        5.83140
O          7.14012       -7.30310        6.97046
O          5.06646       -8.31482        5.94515
O          7.30412       -9.03259        5.18746
H          0.54121        1.44552        0.18794
H          4.66859        0.60650        0.01018
H          3.98788       -0.92254       -0.54087
H          5.50124        0.83940        2.39283
H          3.79467       -3.95275        1.20593
H          2.98380       -2.69060        0.28166
H          2.03524       -3.91474        2.93449
H         -0.08412       -2.66572        2.51169
H          0.69803       -1.78583        1.18321
H          1.24755       -1.47344        4.03002
H          1.17333       -0.34234        2.84678
H          0.78510       -4.12096        0.42377
H          3.60539       -3.56430        4.27678
H          4.95486       -2.75782        5.09605
H          6.59002       -3.95632        3.60030
H          5.25540       -4.79877        2.79405
H          4.55145       -5.79387        5.01834
H          5.92535       -4.99462        5.79361
H          7.51851       -6.34514        4.35069
H          6.11286       -7.15793        3.59072
H          8.13759       -9.08505        5.69450
