51

C          2.33972       -1.78080        1.08374
C          3.07447       -0.51637        0.63205
C          3.87565       -0.70692       -0.66117
C          4.61941        0.55593       -1.10836
C          5.43478        0.36718       -2.39189
C          6.17834        1.63584       -2.82543
C          7.00167        1.44810       -4.10457
C          7.74472        2.72811       -4.50312
N          8.49934        2.62351       -5.76776
C          7.84854        2.70663       -6.93770
N          8.31716        2.42026       -8.16414
N          7.38541        2.65877       -9.16319
C          6.33714        3.09882       -8.50280
N          6.56998        3.14554       -7.13699
N          5.12250        3.43833       -9.03626
N          5.05182        3.67649      -10.42228
N          4.34025        4.25244       -8.18335
C          9.95604        2.41224       -5.74446
C         10.45026        0.97089       -5.92826
O         10.24253        0.65172       -7.32341
C         11.91921        0.84003       -5.54137
H          1.77089       -1.60507        2.00651
H          3.04274       -2.60398        1.27909
H          1.63023       -2.12778        0.31803
H          3.75493       -0.18013        1.43245
H          2.34829        0.30190        0.49063
H          3.19573       -1.03649       -1.46653
H          4.60009       -1.52880       -0.52323
H          5.28989        0.89048       -0.29769
H          3.89251        1.37384       -1.25585
H          4.76621        0.03905       -3.20704
H          6.16205       -0.45063       -2.24806
H          6.84053        1.96811       -2.00742
H          5.44984        2.45236       -2.97473
H          6.34208        1.13017       -4.92964
H          7.73315        0.63592       -3.96508
H          8.47191        3.00948       -3.72967
H          7.04590        3.57911       -4.57243
H          9.13513        1.82238       -8.32744
H          5.91220        3.54986       -6.47656
H          4.83053        2.80184      -10.90221
H          5.95646        4.01317      -10.76931
H          3.36913        3.94631       -8.26935
H          4.38214        5.22263       -8.51717
H         10.30349        2.78485       -4.77300
H         10.41680        3.04492       -6.52123
H          9.83190        0.29681       -5.30836
H         10.58885       -0.23620       -7.50524
H         12.54328        1.54188       -6.11191
H         12.27967       -0.17833       -5.74239
H         12.06241        1.03035       -4.46868
