74

C          0.70747       -0.12671       -0.06643
C          2.23753       -0.09204       -0.10399
C          2.81089        1.32500       -0.21834
C          4.34169        1.36932       -0.26031
C          4.91350        2.78513       -0.38832
C          6.44409        2.82637       -0.44232
C          7.01785        4.23922       -0.59134
C          8.54821        4.27383       -0.65559
C          9.12627        5.68239       -0.82714
C         10.65643        5.70676       -0.90393
C         11.23879        7.11052       -1.10205
C         12.76869        7.11924       -1.19058
C         13.35538        8.51989       -1.40568
C         14.89123        8.49395       -1.48872
C         15.45387        9.89314       -1.72562
S         17.29500        9.85971       -1.69585
C         17.68119        8.92959       -3.12727
N         17.40571        9.21682       -4.36442
N         17.91866        8.18757       -5.12470
C         18.47468        7.33354       -4.27620
O         18.36223        7.75535       -2.96635
S         19.26827        5.83804       -4.55170
C         19.14587        5.71659       -6.38126
C         19.68753        4.34366       -6.78531
C         19.69846        4.16737       -8.31096
C         20.21457        2.78991       -8.73493
C         17.80493       11.57503       -2.23800
C         19.29266       11.64554       -2.31183
C         19.95098       11.64655       -3.47663
H          0.32873       -1.15506        0.01272
H          0.27559        0.31674       -0.97617
H          0.31581        0.43827        0.79262
H          2.59931       -0.69808       -0.95205
H          2.64003       -0.57398        0.80320
H          2.45055        1.93287        0.63049
H          2.40696        1.80792       -1.12592
H          4.70055        0.75484       -1.10496
H          4.74595        0.89326        0.65052
H          4.56112        3.39965        0.45880
H          4.50423        3.26212       -1.29637
H          6.79504        2.20155       -1.28266
H          6.85450        2.35995        0.47068
H          6.67280        4.86527        0.25029
H          6.60434        4.70589       -1.50282
H          8.89121        3.63673       -1.48993
H          8.96256        3.81799        0.26090
H          8.79148        6.32069        0.00925
H          8.70820        6.13910       -1.74143
H         10.98935        5.05533       -1.73107
H         11.07572        5.26395        0.01653
H         10.91599        7.76280       -0.27215
H         10.81690        7.55512       -2.02013
H         13.09096        6.45995       -2.01510
H         13.19203        6.68457       -0.26861
H         13.04290        9.18392       -0.58239
H         12.94447        8.95565       -2.33178
H         15.20106        7.82796       -2.30990
H         15.30536        8.07437       -0.55785
H         15.20183       10.59105       -0.91148
H         15.15563       10.32550       -2.69080
H         19.73412        6.53697       -6.81288
H         18.09252        5.84651       -6.66076
H         19.07281        3.55323       -6.32454
H         20.71115        4.21513       -6.39524
H         20.32328        4.95500       -8.76293
H         18.67930        4.31989       -8.70264
H         21.24213        2.62028       -8.38218
H         20.21833        2.69168       -9.82816
H         19.58504        1.98394       -8.33083
H         17.37283       12.21246       -1.45232
H         17.30490       11.75189       -3.19835
H         19.83251       11.70464       -1.36368
H         19.42847       11.58982       -4.43354
H         21.03764       11.72215       -3.50719
