55

O          0.28528        1.75589        1.05635
C          1.52163        1.10460        0.82321
C          2.39393        2.08716        0.04585
C          3.76344        1.51380       -0.30338
S          3.60978        0.10519       -1.51165
C          4.75505        0.77255       -2.52817
N          5.29780        1.92467       -2.18050
C          4.75393        2.54893       -0.91545
C          5.83488        2.96556        0.10764
C          5.17673        3.54306        1.34338
C          4.63513        4.83803        1.31368
C          3.95628        5.34791        2.42153
C          3.81140        4.56949        3.57450
C          4.36509        3.28807        3.62159
C          5.04572        2.77868        2.51212
C          6.17753        2.64768       -3.12580
C          7.72183        2.26884       -3.07936
C          8.19981        0.79039       -3.39781
C          7.96853        0.09296       -4.80252
C          8.48129        0.73187       -6.15601
C         10.01571        1.02767       -6.40054
C         11.09540       -0.12920       -6.36819
C         10.93042       -1.35078       -7.34826
F         10.69779       -0.93206       -8.60245
F         12.06413       -2.06594       -7.32517
F          9.91479       -2.14317       -6.95365
F         12.26872        0.47548       -6.67191
F         11.17176       -0.61523       -5.10133
F         10.07004        1.61431       -7.61923
F         10.40842        1.93737       -5.46740
F          8.04977       -0.09928       -7.13487
F          7.83894        1.92312       -6.29739
F          8.48251       -1.14680       -4.67747
F          6.60858       -0.03690       -4.96029
F          9.51608        0.76022       -3.12160
F          7.55444       -0.01755       -2.49188
F          8.34975        3.13532       -3.89590
F          8.13152        2.50086       -1.80180
F          5.70752        2.46261       -4.37698
F          6.09267        3.95837       -2.82191
H         -0.28586        1.17959        1.58744
H          1.37749        0.17039        0.23909
H          2.02744        0.83047        1.76872
H          2.55587        2.98141        0.66762
H          1.86753        2.41556       -0.86403
H          4.21879        1.05686        0.58739
H          5.03300        0.28259       -3.46198
H          4.19510        3.43952       -1.24052
H          6.50078        3.71007       -0.34540
H          6.44279        2.08646        0.36665
H          4.75162        5.45846        0.42173
H          3.54516        6.35707        2.38773
H          3.28059        4.96762        4.43932
H          4.27617        2.68664        4.52676
H          5.49572        1.78428        2.56479
