87

C          7.23827      -14.68398       -3.95776
C          7.47626      -14.18023       -2.53167
C          8.19945      -12.82973       -2.47716
C          8.46194      -12.32509       -1.05449
C          9.21927      -10.99400       -1.00581
C          9.51228      -10.50064        0.41491
C         10.32441       -9.20225        0.45785
C         10.63332       -8.71278        1.87652
C         11.49014       -7.44365        1.91442
C         11.81092       -6.95303        3.33020
C         12.70344       -5.70667        3.34601
C         13.01781       -5.14481        4.74223
C         13.75133       -6.09598        5.70390
C         15.07386       -6.64407        5.15282
C         15.89380       -7.37359        6.22526
C         17.10065       -8.17004        5.72204
N         18.28952       -7.34241        5.41688
N         18.13559       -6.03177        5.02261
C         19.34924       -5.57977        4.85972
N         20.28810       -6.54278        5.11634
C         19.60909       -7.67014        5.45589
N         20.23825       -8.82324        5.77788
C         21.60172       -8.75728        6.32031
C         22.78722       -8.71427        5.30252
N         22.75131       -7.45663        4.50435
N         23.98761       -8.64043        6.13405
N         22.63877       -9.82172        4.35625
C         19.60720      -10.14207        5.63887
C         19.16561      -10.78291        6.94281
C         19.11190      -10.04774        8.13450
C         18.69569      -10.63935        9.32892
C         18.32416      -11.98314        9.33584
C         18.36852      -12.71900        8.14990
C         18.78485      -12.14441        6.94149
C         18.80958      -12.97218        5.68053
H          6.72065      -15.65314       -3.96314
H          8.18761      -14.81146       -4.49954
H          6.62368      -13.97636       -4.53412
H          8.06291      -14.92728       -1.97006
H          6.51121      -14.09702       -2.00355
H          7.60886      -12.07747       -3.02948
H          9.16011      -12.91137       -3.01659
H          9.03461      -13.08859       -0.49822
H          7.50169      -12.22089       -0.51921
H          8.64277      -10.22425       -1.54835
H         10.17112      -11.09927       -1.55639
H         10.05721      -11.28733        0.96694
H          8.56137      -10.35722        0.95744
H          9.78155       -8.41226       -0.09017
H         11.27214       -9.34982       -0.09031
H         11.14868       -9.51593        2.43366
H          9.68728       -8.53287        2.41642
H         10.97815       -6.63913        1.35804
H         12.43486       -7.62733        1.37147
H         12.29317       -7.77379        3.89021
H         10.87087       -6.73712        3.86759
H         12.21470       -4.91146        2.75950
H         13.64283       -5.92708        2.80937
H         12.07832       -4.82455        5.22160
H         13.62293       -4.23031        4.62376
H         13.09466       -6.93749        5.98196
H         13.94993       -5.55027        6.64159
H         15.66783       -5.82333        4.72734
H         14.87227       -7.34386        4.32374
H         15.24944       -8.11484        6.72645
H         16.21806       -6.67406        7.01216
H         16.83017       -8.72717        4.81053
H         17.41745       -8.88943        6.48724
H         19.58638       -4.56351        4.56390
H         21.32984       -6.63626        4.85898
H         21.72299       -9.64113        6.96431
H         21.69399       -7.87728        6.97124
H         23.57029       -6.88985        4.72730
H         22.74537       -7.66421        3.50492
H         24.01440       -9.38155        6.83550
H         24.83234       -8.73105        5.56609
H         23.42224       -9.83807        3.69854
H         22.66384      -10.71622        4.84925
H         20.32778      -10.78477        5.11173
H         18.76569      -10.04403        4.93752
H         19.40089       -8.99499        8.13919
H         18.66525      -10.05081       10.24610
H         17.99877      -12.45971       10.26075
H         18.07305      -13.76984        8.15754
H         18.45421      -13.99025        5.87659
H         19.82443      -13.05507        5.25917
H         18.17047      -12.54727        4.89084
