58

N          0.91542       -0.15599       -0.80339
C          2.27725        0.34148       -0.89694
C          3.18839       -0.78161       -1.41673
C          4.66836       -0.41573       -1.60305
N          5.20280       -0.22182       -0.14352
C          6.69832       -0.11673        0.01479
C          7.32198       -1.33369       -0.65060
O          6.90475       -1.42280       -2.00468
C          5.49919       -1.64257       -2.13389
C          5.21877       -1.97047       -3.55715
N          4.38301       -2.86171       -3.99945
N          4.33087       -2.70616       -5.37842
C          5.16615       -1.73517       -5.67202
O          5.78995       -1.22554       -4.55047
S          5.50105       -1.10242       -7.24122
C          6.05137        0.60911       -6.83412
C          5.57343        1.57118       -7.92055
C          6.02065        3.01087       -7.63134
C          5.43907        4.01952       -8.62440
C          4.97343        0.90788       -2.35554
C          4.07440        1.40135       -3.48758
C          4.09115        2.78310       -3.73225
C          3.38338        3.32222       -4.80797
C          2.64660        2.49337       -5.65320
C          2.59858        1.10980       -5.42633
C          3.31551        0.58742       -4.34006
C          1.80685        0.19545       -6.32319
H          0.24765        0.60011       -0.66282
H          0.79192       -0.82142       -0.04045
H          2.67335        0.75758        0.06404
H          2.28423        1.17213       -1.61601
H          2.77980       -1.13920       -2.36883
H          3.12684       -1.65821       -0.74356
H          4.86322       -1.02696        0.40431
H          4.72740        0.60635        0.24357
H          6.92162       -0.06526        1.08881
H          7.01942        0.81432       -0.46630
H          7.06119       -2.26044       -0.10082
H          8.41486       -1.23928       -0.65699
H          5.19331       -2.53602       -1.55229
H          7.14562        0.60419       -6.74265
H          5.61358        0.87481       -5.86501
H          4.47433        1.52877       -7.97648
H          5.95099        1.25604       -8.90736
H          7.12161        3.06290       -7.64686
H          5.71288        3.28143       -6.60776
H          5.73734        3.78576       -9.65650
H          5.78259        5.03873       -8.40350
H          4.33943        4.02273       -8.59053
H          6.00404        0.83703       -2.74031
H          4.99387        1.72493       -1.61427
H          4.67179        3.44428       -3.08490
H          3.41006        4.39780       -4.98572
H          2.10215        2.92190       -6.49658
H          3.26184       -0.48927       -4.19145
H          2.05443        0.36429       -7.38037
H          0.72715        0.37533       -6.21249
H          2.00030       -0.86009       -6.09692
