90

C          9.48304        0.56522        5.39411
C          8.96455        0.56181        3.95458
C          9.24084       -0.75509        3.22262
C          8.73186       -0.77287        1.77741
C          9.00773       -2.10369        1.06812
C          8.51166       -2.11733       -0.36759
O          8.80927       -3.40213       -0.94754
C          8.42014       -3.50685       -2.30242
C          8.91165       -4.86550       -2.80068
O          8.45522       -5.03806       -4.13129
C          9.01876       -6.18815       -4.75602
C          8.53115       -6.24127       -6.19806
O          9.13547       -5.16671       -6.89552
C          8.60371       -4.96591       -8.20610
O          7.23582       -4.66722       -8.22115
C          6.89181       -3.40102       -7.62535
C          5.37951       -3.27657       -7.67749
O          4.72606       -4.30776       -6.93205
C          8.58700       -7.45054       -4.01020
N          8.94100       -7.31703       -2.53610
C          8.46883       -6.01515       -1.86956
C          6.99719       -6.12817       -1.47696
O          6.20156       -6.43269       -2.59769
C          4.78252       -6.41678       -2.32494
C          4.04458       -6.68469       -3.62492
C          2.52190       -6.70083       -3.44954
C          1.78177       -6.93317       -4.77128
C          0.25878       -6.97077       -4.61882
C         -0.48111       -7.16573       -5.94578
C         -2.00385       -7.22044       -5.79262
C         -2.74950       -7.37153       -7.12174
C         -4.27138       -7.43408       -6.96502
C         -5.02273       -7.55059       -8.29466
C         -6.54197       -7.61148       -8.12487
H          9.27124        1.51912        5.89532
H         10.57118        0.40691        5.42572
H          9.01483       -0.23385        5.98790
H          9.42511        1.39210        3.39350
H          7.87917        0.75771        3.95142
H          8.77696       -1.58614        3.78258
H         10.32684       -0.95382        3.22844
H          9.20433        0.05044        1.21473
H          7.64760       -0.56723        1.76979
H          8.52439       -2.92604        1.62105
H         10.08991       -2.31157        1.07120
H          9.00578       -1.32763       -0.96419
H          7.42005       -1.93905       -0.41226
H          8.87812       -2.71847       -2.92693
H          7.32163       -3.43752       -2.42727
H         10.02387       -4.85276       -2.78838
H         10.12640       -6.10045       -4.75373
H          7.43068       -6.15628       -6.20557
H          8.81090       -7.21492       -6.64971
H          8.71271       -5.87984       -8.81461
H          9.21258       -4.14419       -8.61776
H          7.36671       -2.57775       -8.19084
H          7.24337       -3.36876       -6.58140
H          5.03872       -3.27569       -8.72753
H          5.07970       -2.32202       -7.22226
H          4.89182       -5.13786       -7.40660
H          9.10126       -8.34605       -4.38284
H          7.49961       -7.57373       -4.04998
H          9.96462       -7.37116       -2.43845
H          8.54913       -8.11664       -2.02031
H          9.04658       -5.92959       -0.93792
H          6.71080       -5.17048       -1.00348
H          6.89457       -6.90783       -0.68904
H          4.50864       -5.42924       -1.90959
H          4.54786       -7.18326       -1.56161
H          4.37708       -7.65616       -4.02872
H          4.32841       -5.91370       -4.35931
H          2.19111       -5.74310       -3.01277
H          2.23804       -7.48444       -2.72603
H          2.12600       -7.88222       -5.21911
H          2.06059       -6.13813       -5.48429
H         -0.08344       -6.03328       -4.14688
H         -0.01913       -7.78093       -3.92205
H         -0.12925       -8.09468       -6.42823
H         -0.21263       -6.34548       -6.63449
H         -2.35135       -6.30415       -5.28389
H         -2.27294       -8.05777       -5.12504
H         -2.39780       -8.28237       -7.63766
H         -2.48601       -6.52772       -7.78366
H         -4.62022       -6.53343       -6.42944
H         -4.53726       -8.29047       -6.32037
H         -4.67401       -8.44927       -8.83108
H         -4.75684       -6.69299       -8.93563
H         -6.83981       -8.48261       -7.52230
H         -7.05444       -7.68672       -9.09372
H         -6.92165       -6.71318       -7.61562
