56

C          1.31846       -6.25479       -4.79186
C          2.84136       -6.13079       -4.71541
C          3.31867       -4.68321       -4.56317
C          4.84236       -4.54656       -4.48548
C          5.31294       -3.09525       -4.34900
C          6.83716       -2.95830       -4.29883
C          7.29683       -1.48507       -4.20894
C          8.79472       -1.35095       -4.21771
C          9.53416       -1.30427       -3.00370
C         10.91257       -1.21583       -2.98383
C         11.65204       -1.17786       -4.19060
C         10.91640       -1.22982       -5.43340
C          9.50044       -1.31232       -5.40964
C         11.62659       -1.19430       -6.66130
C         10.99972       -1.17239       -8.02059
C         10.50688        0.25219       -8.42802
C          9.97804        0.27152       -9.81608
C          8.71091        0.49605      -10.18639
F          7.73367        0.73356       -9.31421
F          8.28393        0.51871      -11.43240
F         10.89630        0.02519      -10.78808
N         12.96955       -1.13080       -6.60100
C         13.70454       -1.07979       -5.44577
C         13.08215       -1.09165       -4.22261
C         13.93154       -0.99209       -2.97391
C         13.93556        0.37560       -2.34031
C         13.66714        0.69743       -1.07127
Br        13.14798       -0.56347        0.24155
Br        14.48939        1.80393       -3.48825
H          1.00529       -7.30164       -4.90155
H          0.91559       -5.69498       -5.64894
H          0.84096       -5.85792       -3.88384
H          3.29438       -6.56785       -5.62128
H          3.21972       -6.72806       -3.86878
H          2.86548       -4.24328       -3.65776
H          2.94154       -4.08509       -5.41135
H          5.29421       -4.99289       -5.38871
H          5.22016       -5.13689       -3.63274
H          4.87447       -2.64938       -3.44006
H          4.92370       -2.50435       -5.19625
H          7.28052       -3.41664       -5.19929
H          7.23843       -3.52036       -3.43915
H          6.88919       -1.03016       -3.29350
H          6.87432       -0.92771       -5.05944
H          8.98995       -1.33203       -2.05738
H         11.43254       -1.17243       -2.02655
H          8.94725       -1.34865       -6.34891
H         10.15430       -1.87186       -8.05431
H         11.72676       -1.52276       -8.76857
H         11.34739        0.96211       -8.35643
H          9.72911        0.60001       -7.73652
H         13.47883       -1.12141       -7.48526
H         14.78326       -1.02320       -5.57215
H         14.96898       -1.25704       -3.23161
H         13.59639       -1.71971       -2.22013
H         13.73825        1.70997       -0.68218
