40

C          3.17366        2.53299       -0.92964
C          2.45686        1.72062       -0.15109
C          2.99918        0.81805        0.92344
N          4.46459        0.81069        1.02262
C          5.18527        1.00254        2.15473
N          6.31003        0.29600        2.34589
C          7.36998        0.62976        3.33924
O          6.99144        1.80921        4.01850
C          5.60303        1.78373        4.34006
N          4.80470        1.87751        3.11471
C          4.16799        3.18408        2.80173
C          5.17817        4.30712        2.57292
Si         9.13794        0.89327        2.53556
C          9.45829       -0.64358        1.49331
C          9.05900        2.44825        1.48707
C         10.33955        1.03700        3.96562
H          2.69633        3.14050       -1.69683
H          4.25782        2.62077       -0.83575
H          1.37329        1.65182       -0.28067
H          2.66103       -0.21611        0.73404
H          2.58875        1.08468        1.90844
H          4.95304        0.34093        0.26556
H          6.44799       -0.54765        1.79630
H          7.40100       -0.22743        4.04460
H          5.39019        2.65287        4.97034
H          5.34808        0.85328        4.87489
H          3.50037        3.41673        3.64312
H          3.53887        3.06172        1.91412
H          5.82655        4.47018        3.44346
H          4.63464        5.24178        2.38149
H          5.81611        4.10007        1.70344
H          8.77529       -0.73083        0.63546
H          9.39833       -1.56908        2.08360
H         10.47532       -0.59658        1.07733
H          8.30923        2.37295        0.68709
H         10.03075        2.62922        1.00636
H          8.82276        3.32748        2.10133
H         10.33980        0.13201        4.58931
H         10.09702        1.89491        4.60708
H         11.36273        1.17893        3.58957
