78

C         21.37647      -11.63285       -1.63561
C         21.18346      -10.64101       -0.48651
C         19.72508      -10.21108       -0.30123
C         19.51334       -9.22058        0.84788
C         18.05403       -8.78610        1.01020
C         17.81647       -7.81430        2.17069
C         16.34945       -7.39493        2.30388
C         16.06513       -6.46527        3.48804
C         14.58346       -6.09341        3.60062
C         14.24602       -5.20950        4.80650
C         12.74410       -4.92740        4.91145
C         12.32385       -4.05207        6.09643
N         12.69482       -4.61184        7.41320
C         13.31266       -3.96346        8.38335
C         13.75930       -2.53385        8.32589
C         12.60888       -1.55285        8.63746
O         12.08150       -1.91419        9.89180
C         11.06537       -1.01510       10.37602
C         10.57612       -1.52430       11.72154
C          9.48387       -0.64016       12.33308
C          8.98344       -1.16469       13.68374
C          7.89350       -0.28733       14.30200
S         13.55543       -4.86192        9.81917
C         12.96562       -6.43205        9.02768
C         12.18291       -5.94559        7.79680
C         14.13638       -7.37237        8.72917
C         14.85814       -7.88032        9.98214
C         16.01708       -8.82334        9.65271
H         22.43053      -11.92092       -1.74790
H         21.04554      -11.20196       -2.59232
H         20.79560      -12.55235       -1.46967
H         21.80493       -9.74671       -0.66153
H         21.55199      -11.08722        0.45266
H         19.10135      -11.10627       -0.12996
H         19.35718       -9.76279       -1.24105
H         20.14449       -8.32969        0.68384
H         19.86766       -9.67421        1.79033
H         17.42288       -9.68074        1.15427
H         17.70743       -8.32091        0.07079
H         18.44569       -6.91740        2.03573
H         18.15135       -8.28239        3.11325
H         15.72351       -8.29960        2.39972
H         16.02624       -6.90250        1.37040
H         16.67187       -5.54812        3.39438
H         16.39242       -6.95465        4.42269
H         13.98444       -7.01947        3.65717
H         14.26226       -5.58342        2.67651
H         14.79954       -4.25690        4.73746
H         14.60363       -5.70510        5.72651
H         12.18100       -5.87458        4.92228
H         12.39962       -4.39822        4.00886
H         11.23022       -3.91277        6.09964
H         12.78191       -3.05937        6.01872
H         14.18584       -2.30410        7.33933
H         14.55313       -2.39053        9.07035
H         11.83165       -1.59263        7.84797
H         13.02489       -0.52728        8.64382
H         10.23591       -0.96923        9.64423
H         11.49146        0.00200       10.46672
H         11.43485       -1.58737       12.40903
H         10.19578       -2.55124       11.59452
H          8.63196       -0.56452       11.63522
H          9.86664        0.38686       12.46174
H          9.83580       -1.24235       14.37923
H          8.60254       -2.19178       13.55331
H          8.25710        0.73559       14.47828
H          7.55529       -0.69025       15.26592
H          7.01498       -0.21876       13.64358
H         12.27908       -6.89727        9.74804
H         11.10674       -5.83857        8.00990
H         12.30298       -6.64084        6.95652
H         14.85119       -6.87350        8.05324
H         13.72409       -8.23206        8.17201
H         14.13113       -8.39456       10.63216
H         15.23931       -7.02260       10.56163
H         15.66840       -9.70701        9.09938
H         16.50748       -9.17686       10.56832
H         16.77880       -8.32150        9.03910
