29

F          2.33751        0.04455       -2.82654
C          2.22473        1.02746       -1.84093
C          3.02894        0.59593       -0.61671
N          4.44388        0.40060       -0.98241
N          5.25335        1.48262       -1.05294
C          6.40762        1.02146       -1.49735
N          6.31647       -0.32732       -1.71799
C          5.06469       -0.72354       -1.39195
C          4.52418       -2.14496       -1.41621
O          3.47778       -2.37066       -0.84759
C          5.35640       -3.16974       -2.13332
C          7.64509        1.84811       -1.71703
O          7.67596        3.03663       -1.52651
O          8.62786        1.03103       -2.12931
C          9.94137        1.66565       -2.40210
C         10.01625        2.16432       -3.83002
H          1.16704        1.13009       -1.55802
H          2.59444        1.97495       -2.25962
H          2.66217       -0.35272       -0.21218
H          3.00924        1.37881        0.15142
H          7.08115       -0.91234       -2.05323
H          6.32778       -3.30617       -1.62972
H          5.55178       -2.86546       -3.17319
H          4.82359       -4.12583       -2.12520
H         10.65347        0.85786       -2.19985
H         10.07358        2.47152       -1.66974
H          9.83980        1.35412       -4.54883
H         11.02549        2.55991       -4.00990
H          9.30167        2.97630       -4.01261
