75

C          1.06447        1.54232       -0.66629
C          2.59372        1.46648       -0.67204
C          3.22337        1.87078        0.66563
C          4.75413        1.79466        0.68224
C          5.35986        2.18839        2.03309
C          6.88979        2.10600        2.08782
C          7.44873        2.46821        3.46708
C          8.97601        2.37301        3.58005
C          9.43333        2.66972        5.01690
C         10.93849        2.62288        5.39986
C         11.08938        2.96399        6.91084
C         10.42811        1.97867        7.88327
C         10.66494        2.37359        9.34344
S          9.98098        1.09563       10.41920
O          8.53603        1.10787       10.31294
O         10.74528       -0.10917       10.21129
O         10.38487        1.66971       11.88140
C         11.77081        3.68172        4.64130
N         12.13682        3.27501        3.28083
C         12.21014        2.00838        2.90798
N         12.56709        1.70186        1.61898
C         12.93571        2.64603        0.67800
N         12.95683        3.93845        0.80132
N         13.42858        4.43382       -0.42391
C         13.64981        3.39089       -1.17898
O         13.34617        2.18739       -0.52307
S         14.24282        3.22486       -2.78806
C         14.60881        4.97375       -3.20375
C         15.22807        4.98823       -4.60340
C         15.60125        6.40843       -5.05105
C         16.21514        6.43655       -6.45296
N         11.92377        1.01033        3.75032
C         11.57300        1.23451        5.15954
H          0.64226        1.24234       -1.63495
H          0.71543        2.56388       -0.45413
H          0.63484        0.88171        0.10157
H          2.99266        2.11322       -1.47195
H          2.91101        0.44089       -0.92672
H          2.81949        1.22570        1.46598
H          2.90716        2.89773        0.92071
H          5.16292        2.44685       -0.10967
H          5.07139        0.76880        0.42368
H          4.93735        1.54026        2.82083
H          5.04383        3.21491        2.28843
H          7.32369        2.77368        1.32258
H          7.21039        1.08364        1.81863
H          6.99370        1.80621        4.22431
H          7.13096        3.49097        3.73361
H          9.43397        3.07427        2.86271
H          9.28664        1.35894        3.27631
H          8.90337        1.96606        5.67721
H          9.06396        3.67052        5.29840
H         10.67912        3.97432        7.07402
H         12.16596        3.02702        7.14467
H         10.82890        0.96397        7.73664
H          9.34488        1.92292        7.70801
H         10.17002        3.31770        9.61011
H         11.73293        2.44169        9.59475
H          9.56278        1.97496       12.31157
H         12.69654        3.90491        5.19580
H         11.20305        4.61816        4.55793
H         12.38866        3.97423        2.55434
H         12.62607        0.72863        1.33534
H         15.29801        5.36491       -2.44378
H         13.67026        5.54157       -3.16017
H         14.52195        4.54796       -5.32676
H         16.12851        4.35203       -4.61607
H         16.30896        6.84336       -4.32639
H         14.70329        7.04723       -5.02533
H         17.12709        5.82352       -6.50413
H         16.48566        7.45955       -6.74503
H         15.51306        6.05024       -7.20612
H         11.98319        0.05462        3.41763
H         12.48240        1.11963        5.77208
H         10.87413        0.43867        5.44641
