71

O          4.28960       -0.51005        1.01152
C          4.59970        0.36734        0.19620
N          3.70561        1.17819       -0.43859
C          2.29278        1.22274       -0.34827
C          1.64427        2.18050       -1.14719
C          0.25383        2.27145       -1.14712
C         -0.50473        1.40846       -0.35013
C          0.14355        0.46234        0.44672
C          1.53645        0.35774        0.45934
C          6.06282        0.62389       -0.17076
C          6.86072       -0.66546       -0.43018
N          6.98100       -1.50335        0.77049
N          7.75861       -0.99168        1.79005
C          7.47431       -1.71692        2.82912
N          6.54022       -2.68924        2.53719
C          6.21990       -2.53297        1.21338
N          5.37939       -3.35152        0.57097
C          4.86432       -3.22185       -0.79405
C          3.93196       -4.39517       -1.08865
O          3.43322       -4.14496       -2.38328
C          2.48257       -5.08846       -2.84283
C          1.53904       -4.40298       -3.83926
C          0.33628       -3.58348       -3.24475
C          0.58911       -2.29558       -2.37455
C          1.35391       -1.07150       -2.96156
F          2.70822       -1.26639       -2.90375
F          1.00246       -0.85709       -4.25491
F         -0.65070       -1.82932       -2.04452
F          1.21158       -2.66445       -1.20969
F         -0.47005       -3.22662       -4.27289
F         -0.35739       -4.44383       -2.43359
F          2.23768       -3.59887       -4.69013
F          0.95627       -5.39728       -4.57969
C          5.87129       -3.58880        3.48043
C          4.51819       -2.99157        3.90823
C          3.66383       -3.87177        4.82501
C          2.60856       -4.83312        4.15188
C          3.06178       -6.03670        3.23981
C          3.97929       -7.16604        3.83895
F          3.50760       -7.60422        5.00790
F          4.02628       -8.18220        2.96424
F          5.24005       -6.70214        4.01344
F          1.93654       -6.62264        2.78808
F          3.73252       -5.51900        2.14204
F          1.83258       -5.35001        5.12936
F          1.83183       -4.04974        3.34123
F          4.44932       -4.61557        5.66854
F          2.90321       -3.04304        5.60212
H          4.10175        1.85418       -1.08563
H          2.23315        2.85462       -1.77417
H         -0.23518        3.01625       -1.77517
H         -1.59244        1.47226       -0.35232
H         -0.44171       -0.21557        1.06831
H          2.03459       -0.38366        1.07596
H          6.53443        1.16968        0.66127
H          6.16045        1.25656       -1.06448
H          7.88660       -0.41278       -0.72455
H          6.41764       -1.26133       -1.23326
H          7.92545       -1.60106        3.80961
H          4.87183       -3.99921        1.16693
H          5.69430       -3.24261       -1.51415
H          4.29809       -2.28749       -0.91161
H          3.10884       -4.42546       -0.34772
H          4.48154       -5.35579       -1.03848
H          1.88175       -5.50938       -2.02018
H          2.97063       -5.91679       -3.38503
H          1.09645       -0.18558       -2.36132
H          6.53792       -3.71385        4.34140
H          5.78584       -4.57716        3.01352
H          3.91662       -2.69702        3.03707
H          4.70407       -2.06935        4.47619
