63

O          0.63415        1.71288       -0.15244
C          1.88409        1.27816        0.32474
C          1.73044        0.06196        1.26772
F          1.27712       -1.03516        0.62183
F          2.93169       -0.25617        1.83062
F          0.86937        0.35356        2.26190
C          2.67522        0.94741       -0.95295
S          4.48324        0.81460       -0.67062
C          4.95086       -0.79253       -1.39735
C          4.39369       -1.96958       -0.59481
C          5.22877       -3.26000       -0.69286
C          5.00169       -4.22751       -1.92110
C          5.30353       -3.77293       -3.40570
C          6.73290       -3.28579       -3.87873
C          8.02352       -4.18794       -3.72544
C          8.13789       -5.59972       -4.43128
C          8.04604       -5.75103       -6.00413
C          9.05824       -4.95103       -6.90694
F         10.32054       -5.11436       -6.47888
F          8.95796       -5.40970       -8.16352
F          8.76247       -3.63586       -6.90811
F          8.25247       -7.06886       -6.24420
F          6.78749       -5.42950       -6.40187
F          9.34065       -6.08863       -4.04167
F          7.16360       -6.39592       -3.91839
F          9.05414       -3.41805       -4.16163
F          8.19923       -4.41613       -2.39877
F          6.59127       -2.94869       -5.18110
F          7.01227       -2.13292       -3.18729
F          4.92210       -4.78921       -4.20314
F          4.46892       -2.70538       -3.66279
F          5.69068       -5.36323       -1.68178
F          3.66573       -4.51998       -1.91948
F          6.56114       -2.96761       -0.58770
F          4.89248       -4.02039        0.39169
C          5.15562        1.99813       -1.89875
C          6.67955        1.93588       -1.99188
C          7.21861        3.10531       -2.85074
C          8.70663        2.96720       -3.08020
C          9.18839        2.32797       -4.23146
C         10.56039        2.15885       -4.42992
C         11.46718        2.62580       -3.47485
C         10.99674        3.26629       -2.32511
C          9.62453        3.43581       -2.12911
H          0.05445        1.93073        0.59846
H          2.40770        2.05731        0.91279
H          2.52504        1.77361       -1.65968
H          2.31753        0.02131       -1.42074
H          6.04748       -0.77167       -1.33954
H          4.64921       -0.78835       -2.45069
H          3.35660       -2.20405       -0.86548
H          4.40636       -1.73917        0.47974
H          4.81088        2.97275       -1.51857
H          4.66162        1.79526       -2.86054
H          6.99835        0.98921       -2.45201
H          7.13238        1.98136       -0.98909
H          6.99283        4.05902       -2.34833
H          6.69401        3.11910       -3.81905
H          8.48423        1.97203       -4.98768
H         10.92164        1.67007       -5.33530
H         12.53887        2.49914       -3.63010
H         11.70077        3.64202       -1.58191
H          9.26585        3.94878       -1.23319
