81

C          0.67611        0.69446       -0.43028
C          2.17643        0.38966       -0.41198
C          2.65966       -0.20654        0.91483
C          4.16518       -0.48800        0.95393
C          4.64773       -1.06744        2.28759
C          6.16135       -1.29646        2.34694
C          6.65402       -1.81603        3.70166
C          8.17727       -1.95422        3.78412
C          8.68820       -2.39689        5.15929
C         10.21708       -2.42195        5.25382
C         10.75433       -2.76243        6.64774
C         12.28091       -2.66935        6.73564
C         12.84253       -2.87871        8.14599
C         14.35687       -2.65648        8.21552
C         14.93469       -2.76450        9.63057
C         16.44044       -2.45542        9.65370
C         17.06471       -2.49492       11.05574
N         18.51359       -3.01816       10.95196
C         19.49978       -2.01881       10.37499
C         19.44484       -0.75491       11.23617
N         18.10837       -0.20427       11.34262
C         17.15149       -1.17025       11.87627
C         15.77946       -0.57078       12.17513
C         17.73257        0.73935       10.27650
C         18.61845        1.96741       10.29217
C         18.72596        2.75219       11.45006
C         19.53303        3.88942       11.45816
C         20.24497        4.25377       10.30975
C         20.14636        3.47659        9.15466
C         19.33591        2.33711        9.14844
H          0.36166        1.11868       -1.39386
H          0.40630        1.41713        0.35443
H          0.08119       -0.21500       -0.25816
H          2.74221        1.31389       -0.62027
H          2.42272       -0.30480       -1.23314
H          2.10639       -1.14077        1.11739
H          2.39749        0.48147        1.73843
H          4.71421        0.44767        0.74610
H          4.43082       -1.17987        0.13518
H          4.12310       -2.01851        2.48622
H          4.35377       -0.38589        3.10555
H          6.67849       -0.34814        2.11602
H          6.45917       -2.00184        1.55131
H          6.18080       -2.78959        3.91906
H          6.31106       -1.13056        4.49696
H          8.63889       -0.98430        3.52667
H          8.52603       -2.66555        3.01499
H          8.28298       -3.39406        5.40436
H          8.29065       -1.71195        5.92916
H         10.60836       -1.43344        4.95374
H         10.62072       -3.13963        4.51809
H         10.42333       -3.77380        6.94101
H         10.30768       -2.07199        7.38503
H         12.59727       -1.67571        6.37132
H         12.73641       -3.40091        6.04555
H         12.59652       -3.89397        8.50218
H         12.34239       -2.18243        8.84201
H         14.58908       -1.65559        7.81061
H         14.86795       -3.37632        7.55224
H         14.76272       -3.77716       10.03365
H         14.39345       -2.07503       10.29534
H         16.62214       -1.48036        9.18115
H         16.94212       -3.19938        9.00707
H         16.55619       -3.26049       11.66540
H         18.51251       -3.87944       10.39077
H         18.83291       -3.27645       11.89753
H         19.19791       -1.83246        9.33696
H         20.48819       -2.49740       10.37983
H         20.12126        0.00018       10.81285
H         19.82605       -0.99057       12.24809
H         17.57505       -1.47447       12.85722
H         15.23406       -0.26658       11.27381
H         15.90445        0.31212       12.81414
H         15.15558       -1.29517       12.71461
H         16.68841        1.03396       10.44630
H         17.77033        0.29707        9.25967
H         18.17965        2.46236       12.34973
H         19.60639        4.49710       12.36056
H         20.87554        5.14328       10.31787
H         20.70080        3.75489        8.25787
H         19.25414        1.73322        8.24094
