56

C          0.99490       -0.18610        0.03160
C          2.50787       -0.12524       -0.18911
C          3.08263       -1.39482       -0.82913
C          4.59607       -1.32382       -1.05312
C          5.19688       -2.60618       -1.64182
C          6.71455       -2.49438       -1.84046
C          7.33448       -3.80249       -2.33959
S          9.13745       -3.51008       -2.51806
C          9.77800       -5.07436       -2.78868
N         11.07913       -5.34090       -2.89595
N         11.18202       -6.67793       -3.08928
C          9.96369       -7.17807       -3.09594
O          9.00733       -6.19674       -2.90980
C          9.59315       -8.54941       -3.26734
C         10.61289       -9.52120       -3.42113
C         10.27733      -10.84670       -3.58611
C         11.29060      -11.95183       -3.73771
O         12.55926      -11.37358       -3.64712
C         13.63242      -12.31133       -3.65166
O         14.75420      -11.53083       -3.42513
C         15.95704      -12.28576       -3.23251
C         17.07827      -11.28136       -2.96194
O         18.32558      -11.93945       -2.77358
N          8.96058      -11.20161       -3.60742
C          7.93333      -10.30062       -3.46311
C          8.24187       -8.95902       -3.28686
C          6.61465      -10.80759       -3.50552
C          5.48685      -11.24793       -3.54560
H          0.62109        0.73669        0.49526
H          0.71961       -1.02283        0.69078
H          0.45629       -0.32165       -0.91792
H          3.01462        0.05332        0.77432
H          2.75368        0.74294       -0.82360
H          2.57564       -1.58135       -1.79215
H          2.84641       -2.26343       -0.18912
H          5.09556       -1.10139       -0.09421
H          4.82787       -0.47439       -1.71860
H          4.71192       -2.83800       -2.60543
H          4.97525       -3.45492       -0.97165
H          7.18858       -2.21047       -0.88703
H          6.93416       -1.68324       -2.55397
H          6.93128       -4.10311       -3.31631
H          7.18675       -4.61829       -1.61910
H         11.66371       -9.24014       -3.40539
H         11.12871      -12.46536       -4.71085
H         11.12207      -12.70780       -2.93938
H         13.67505      -12.83325       -4.63451
H         13.47936      -13.06343       -2.84313
H         16.19581      -12.88512       -4.12956
H         15.83955      -12.97799       -2.37574
H         16.80594      -10.64660       -2.10142
H         17.19802      -10.62449       -3.83492
H         18.36932      -12.27665       -1.86585
H          8.70588      -12.18134       -3.73207
H          7.42925       -8.24617       -3.17025
H          4.48538      -11.63004       -3.57956
