75

C          3.64250        7.32741        0.36398
C          3.93066        6.02097        1.10611
C          5.41613        5.85812        1.45715
C          5.68293        4.50983        2.12661
S          7.46685        4.40785        2.55200
C          7.60606        2.70601        2.79128
N          6.71405        1.75127        2.75428
N          7.40843        0.55085        2.96025
C          8.64902        0.88756        3.11726
O          8.89528        2.21835        3.03521
N          9.74673        0.06610        3.32773
C          9.69907       -1.29995        3.34972
N         10.87183       -1.97055        3.51012
C         10.79339       -3.44194        3.43126
C         12.01830       -4.09012        4.06314
C         12.34984       -5.50373        3.55247
O         11.24483       -6.42988        3.69060
C         11.07742       -6.98053        4.92845
O         11.67581       -6.61487        5.91806
C         10.07310       -8.11262        4.89478
S          8.33876       -7.53721        5.01169
C         12.73586       -5.50861        2.07166
O         12.96018       -6.83470        1.56927
C         14.18237       -7.38446        1.84426
O         15.06982       -6.79913        2.42780
C         14.24222       -8.81013        1.34976
S         13.53749       -9.94306        2.60657
O          9.61523       -3.86489        4.10779
C          8.46637       -3.42188        3.42074
N          8.57216       -1.95961        3.18137
C          7.24020       -3.75566        4.26417
C          5.95943       -3.30536        3.55075
O          6.04035       -2.49313        2.61027
N          4.77491       -3.80145        3.97833
C          4.62002       -4.74423        5.09331
C          4.49578       -6.20154        4.64357
C          3.54722       -3.35318        3.29434
C          2.96404       -2.07756        3.90227
H          2.57378        7.42176        0.13151
H          4.19651        7.37704       -0.58452
H          3.93146        8.20138        0.96547
H          3.60966        5.16587        0.48880
H          3.33198        5.97604        2.03036
H          5.72954        6.68162        2.12015
H          6.02414        5.94000        0.54188
H          5.45681        3.66876        1.45880
H          5.10663        4.38829        3.05311
H         10.66090        0.50411        3.24836
H         11.56532       -1.56826        4.13711
H         10.69648       -3.69294        2.36016
H         11.87453       -4.12645        5.15242
H         12.90010       -3.46080        3.86139
H         13.18861       -5.88118        4.15449
H         10.28589       -8.79435        5.72450
H         10.13782       -8.65520        3.94408
H          8.40815       -7.13165        6.30193
H         13.64018       -4.89641        1.93788
H         11.92531       -5.12071        1.44088
H         15.27866       -9.08456        1.13022
H         13.61937       -8.94418        0.45755
H         14.53884       -9.79469        3.50608
H          8.38875       -3.90581        2.42997
H          7.67970       -1.49834        2.89568
H          7.32949       -3.26170        5.24471
H          7.27042       -4.84063        4.43882
H          3.72042       -4.44041        5.64944
H          5.45930       -4.62263        5.79004
H          3.64944       -6.33683        3.95711
H          4.32958       -6.85266        5.51236
H          5.40556       -6.54160        4.13000
H          2.82570       -4.18029        3.34989
H          3.79676       -3.19100        2.23873
H          2.71981       -2.20897        4.96567
H          2.03838       -1.80491        3.37772
H          3.67105       -1.24426        3.80255
