74

C          3.28806       -0.44095       -2.31634
C          3.94033       -0.45529       -0.93153
C          4.54402       -1.81495       -0.56012
C          5.16570       -1.84245        0.83978
C          5.74865       -3.20757        1.22241
C          6.32324       -3.22719        2.64550
C          6.92009       -4.59207        2.99213
S          7.48625       -4.53564        4.73836
C          8.39495       -5.98144        4.86840
N          9.09686       -6.37362        5.92718
N          9.70591       -7.53496        5.57165
C          9.35452       -7.80897        4.33140
O          8.50288       -6.86100        3.82447
C          9.87417       -8.89304        3.54044
C         10.84512       -9.68618        4.18042
N         11.47102      -10.62667        3.48175
N         11.30566      -10.91404        2.18957
C         10.36280      -10.20140        1.55344
C          9.57501       -9.20028        2.18917
C          8.57763       -8.39781        1.38580
O          9.21756       -7.16277        1.01989
C          9.69474       -7.01800       -0.28277
C          8.95442       -7.47413       -1.37508
C          9.41500       -7.29859       -2.68515
C          8.59700       -7.78357       -3.85336
C         10.63891       -6.64167       -2.86314
C         11.35291       -6.15908       -1.76593
C         10.91243       -6.32613       -0.44636
C         11.74559       -5.75878        0.69530
C         10.98787       -4.74175        1.57089
C         12.41868       -6.85054        1.54909
C         10.25869      -10.49013        0.09974
C          9.12985      -11.12459       -0.44168
C          9.06298      -11.36604       -1.81435
C         10.10917      -10.96177       -2.64920
C         11.23085      -10.32734       -2.11068
C         11.31501      -10.10120       -0.73707
H          2.86265        0.54442       -2.54903
H          2.47297       -1.17720       -2.38127
H          4.01615       -0.68237       -3.10500
H          3.19448       -0.17154       -0.16989
H          4.72748        0.31617       -0.88498
H          5.30843       -2.09238       -1.30757
H          3.76027       -2.59032       -0.62640
H          4.40260       -1.55262        1.58305
H          5.95786       -1.07676        0.90525
H          6.53700       -3.48904        0.50259
H          4.96309       -3.97862        1.13679
H          5.52814       -2.97172        3.36547
H          7.09992       -2.45202        2.74575
H          7.78322       -4.83215        2.35624
H          6.17365       -5.39378        2.90289
H         11.11979       -9.55024        5.22614
H         12.17665      -11.21019        3.93607
H          7.69213       -8.14908        1.98158
H          8.26318       -8.96388        0.50444
H          7.99531       -7.97069       -1.21751
H          8.28786       -8.82943       -3.71772
H          9.15850       -7.71193       -4.79274
H          7.68040       -7.18601       -3.96888
H         11.03106       -6.49268       -3.87041
H         12.29441       -5.63128       -1.93290
H         12.56009       -5.20364        0.20225
H         10.20736       -5.22905        2.16940
H         10.51161       -3.96806        0.95331
H         11.68247       -4.24277        2.26098
H         11.67859       -7.41555        2.12905
H         13.12395       -6.39843        2.26088
H         12.98005       -7.55615        0.92133
H          8.31936      -11.45306        0.21157
H          8.19536      -11.87827       -2.23072
H         10.05152      -11.14438       -3.72252
H         12.04437      -10.00498       -2.76024
H         12.18605       -9.60028       -0.31518
