102

C          0.54742       -0.82563       -0.84516
C          2.05113       -0.82562       -0.55761
C          2.77820       -2.05746       -1.10980
C          4.28198       -2.06188       -0.81833
C          5.01606       -3.29271       -1.36120
C          6.51228       -3.29921       -1.03362
C          7.25785       -4.53406       -1.54971
C          8.73907       -4.54904       -1.15919
C          9.49928       -5.77665       -1.66812
C         10.96181       -5.81316       -1.20891
C         11.72126       -7.01942       -1.77207
C         13.13556       -7.12346       -1.23448
O         13.77275       -8.27391       -1.85649
C         14.99810       -8.58828       -1.30386
N         15.46742       -9.89752       -1.91443
C         16.91625      -10.10301       -1.49662
C         17.48840      -11.37569       -2.09451
O         16.70728      -12.49799       -1.72617
C         15.39947      -12.36814       -2.24667
C         14.56933      -11.17413       -1.70934
C         13.28374      -11.06997       -2.57437
C         13.46368      -10.97565       -4.09878
C         12.34330      -10.27093       -4.87747
C         11.07096      -11.09561       -5.31623
C         10.08604      -11.73834       -4.26033
C          9.32181      -10.88257       -3.16907
C          8.37950       -9.66953       -3.54871
C          7.10629       -9.85669       -4.46769
C          5.92549      -10.82953       -4.06142
C          5.19274      -10.60604       -2.68597
F          4.83798       -9.31913       -2.53129
F          4.08925      -11.36920       -2.66550
F          5.98143      -10.96875       -1.65644
F          4.99496      -10.67940       -5.03660
F          6.38015      -12.10806       -4.08945
F          6.58384       -8.61112       -4.59790
F          7.53274      -10.27127       -5.68828
F          7.95974       -9.15692       -2.36054
F          9.14844       -8.73166       -4.15997
F          8.59925      -11.77333       -2.44946
F         10.26849      -10.35164       -2.33500
F          9.16244      -12.42098       -4.97069
F         10.81853      -12.64960       -3.54072
F         10.34031      -10.30947       -6.13985
F         11.53945      -12.15835       -6.03751
F         11.92991       -9.14149       -4.23036
F         12.89015       -9.86598       -6.07278
C         14.09345      -11.32363       -0.23411
C         15.04395      -11.18524        0.94130
C         14.90368      -10.08964        1.80903
C         15.74810       -9.91626        2.90521
C         16.75913      -10.84688        3.18990
C         16.87003      -11.96436        2.34684
C         16.02658      -12.13867        1.24907
C         17.65754      -10.67313        4.38558
H          0.06039        0.07450       -0.44556
H          0.05368       -1.69850       -0.39253
H          0.34755       -0.85867       -1.92661
H          2.21869       -0.76540        0.53143
H          2.50814        0.08432       -0.98253
H          2.61562       -2.11806       -2.20064
H          2.32125       -2.96990       -0.68696
H          4.44039       -1.99833        0.27280
H          4.73836       -1.14955       -1.24111
H          4.87850       -3.34959       -2.45532
H          4.54979       -4.20589       -0.95081
H          6.64243       -3.22993        0.06079
H          6.98172       -2.39044       -1.44962
H          7.16585       -4.58758       -2.64875
H          6.76965       -5.44530       -1.16100
H          8.82236       -4.50052       -0.05904
H          9.22746       -3.63452       -1.53885
H          9.46003       -5.80545       -2.77086
H          8.99004       -6.69331       -1.32411
H         10.99359       -5.83168       -0.10556
H         11.46767       -4.88134       -1.51437
H         11.76101       -6.95707       -2.86981
H         11.17987       -7.94672       -1.52756
H         13.13932       -7.26720       -0.13822
H         13.72788       -6.22007       -1.46550
H         14.97497       -8.72750       -0.21099
H         15.78623       -7.85240       -1.55844
H         15.45934       -9.73813       -2.93453
H         16.92557      -10.14827       -0.40162
H         17.47435       -9.21974       -1.83553
H         18.49971      -11.53392       -1.69853
H         17.56045      -11.30030       -3.19932
H         14.85746      -13.28908       -1.99313
H         15.46030      -12.30884       -3.35039
H         12.70414      -10.21558       -2.21966
H         12.70194      -11.96777       -2.33043
H         13.61837      -11.95723       -4.56511
H         14.34426      -10.37028       -4.37463
H         13.62200      -12.31906       -0.20537
H         13.26870      -10.60930       -0.09063
H         14.09673       -9.37020        1.64312
H         15.60938       -9.05252        3.55834
H         17.62748      -12.72115        2.55973
H         16.15012      -13.02099        0.62284
H         17.13442      -10.96464        5.30925
H         17.96694       -9.62632        4.50759
H         18.55904      -11.29310        4.30830
