62

C          0.72150        2.26849        2.52984
C          1.96993        2.99126        2.02105
C          3.25672        2.18854        2.24377
C          4.51366        2.92798        1.76657
C          5.76188        2.08518        1.97051
O          6.96243        2.77365        1.46398
C          7.62440        3.54267        2.33377
O          7.33645        3.73444        3.49816
C          8.87621        4.13973        1.66768
C          9.29352        5.38975        2.41117
O          8.65515        6.52853        1.91990
C          9.24709        7.63002        2.62747
C         10.74011        7.23915        2.84835
N         10.77560        5.79603        2.32560
C         11.45759        5.63068        1.00555
C         12.87353        5.11008        1.36060
O         13.05779        4.70182        2.51730
N         13.79198        5.12807        0.38673
C         15.16582        4.62307        0.55535
C         15.37939        3.22136       -0.02457
C         15.21492        3.12834       -1.54524
C         15.49294        1.72322       -2.08369
C         11.20562        7.28452        4.30866
C         11.15317        8.68603        4.94315
C         12.15636        9.68143        4.39111
F         11.88259        9.94819        3.02740
H         -0.18520        2.86094        2.34896
H          0.78470        2.07739        3.61106
H          0.59009        1.29829        2.02863
H          2.06228        3.96879        2.52307
H          1.86136        3.20901        0.94557
H          3.17494        1.22023        1.72027
H          3.35606        1.95007        3.31650
H          4.61939        3.87419        2.32020
H          4.41784        3.18164        0.69878
H          5.72747        1.15906        1.38298
H          5.92427        1.84705        3.02982
H          8.67968        4.34370        0.60729
H          9.66087        3.36895        1.73314
H          9.11065        5.24566        3.49311
H          8.73765        7.77023        3.59493
H          9.12338        8.52928        2.01497
H         11.40461        7.83310        2.21321
H         11.40951        5.21729        2.94770
H         11.46533        6.57507        0.45049
H         10.92720        4.87667        0.40982
H         13.51849        5.47064       -0.52975
H         15.37108        4.63404        1.63259
H         15.83700        5.34809        0.07117
H         14.69962        2.51429        0.47815
H         16.40080        2.91307        0.25146
H         15.89541        3.85012       -2.02802
H         14.19159        3.42732       -1.83297
H         16.52360        1.41194       -1.86202
H         15.35803        1.67868       -3.17213
H         14.81815        0.98189       -1.63152
H         12.23424        6.89457        4.37017
H         10.56863        6.60926        4.90391
H         11.36069        8.57986        6.01934
H         10.14119        9.11452        4.87230
H         13.18821        9.29975        4.44151
H         12.09873       10.64041        4.92460
