107

C         11.36211        6.27724       10.22946
C         11.27990        5.62280        8.84843
C         11.79679        6.51680        7.71552
C         11.71404        5.85861        6.33507
C         12.22465        6.73911        5.18977
C         12.14087        6.05409        3.82249
C         12.64819        6.90878        2.65626
C         12.56774        6.18294        1.31002
C         13.07865        6.99797        0.11735
C         13.01393        6.21478       -1.19732
C         13.54377        6.97480       -2.41760
C         13.51062        6.11962       -3.68853
C         14.08578        6.81109       -4.92991
C         14.08875        5.85447       -6.12839
N         14.73539        6.36565       -7.35542
C         14.01230        6.95082       -8.32009
N         12.78293        7.43681       -8.03352
N         14.45948        7.09130       -9.58932
C         15.19404        6.08380      -10.38124
C         14.45514        4.74798      -10.50177
C         15.21537        3.76773      -11.40565
N         15.35614        4.32302      -12.75659
C         16.21436        6.34490       -7.38474
C         16.83332        4.94860       -7.47709
C         18.36292        5.01321       -7.54717
C         19.01726        3.63110       -7.46267
C         20.54776        3.67740       -7.46250
C         21.19207        2.30513       -7.24403
C         22.72226        2.34483       -7.20059
C         23.35681        0.98798       -6.88114
C         24.88804        1.01605       -6.86235
C         25.51766       -0.31948       -6.45328
C         27.04809       -0.29968       -6.48100
C         27.66562       -1.62395       -6.01105
N         29.11981       -1.63166       -6.06852
C         29.95916       -1.12451       -5.10001
C         31.25797       -1.19896       -5.57001
C         31.20332       -1.76403       -6.87467
C         29.87270       -2.01561       -7.15752
H         10.98365        5.60963       11.01569
H         10.77075        7.20435       10.26828
H         12.39960        6.53828       10.48694
H         10.23482        5.33962        8.63640
H         11.85153        4.67906        8.85300
H         12.84356        6.80099        7.92397
H         11.22504        7.46171        7.70667
H         10.66718        5.57104        6.13207
H         12.28649        4.91413        6.34863
H         13.27070        7.03101        5.38995
H         11.64819        7.68062        5.16540
H         11.09434        5.76003        3.62734
H         12.71508        5.11116        3.85493
H         13.69294        7.21000        2.84886
H         12.06731        7.84640        2.60596
H         11.52200        5.88219        1.12178
H         13.14242        5.24191        1.37404
H         14.12008        7.31254        0.30592
H         12.49216        7.92866        0.02499
H         11.97057        5.90672       -1.38640
H         13.58681        5.27743       -1.08401
H         14.57980        7.30392       -2.22562
H         12.95411        7.89527       -2.57032
H         12.47231        5.80374       -3.89089
H         14.07694        5.18934       -3.50769
H         15.11280        7.15136       -4.72163
H         13.50710        7.72487       -5.15566
H         13.06695        5.54583       -6.39036
H         14.62753        4.93622       -5.85586
H         12.52375        7.68712       -7.08723
H         12.09986        7.57828       -8.76661
H         13.96588        7.79333      -10.13159
H         16.20111        5.93472       -9.96984
H         15.33364        6.51675      -11.37876
H         13.44834        4.92582      -10.91576
H         14.31438        4.29200       -9.50870
H         14.70879        2.78605      -11.36633
H         16.22756        3.61029      -10.99914
H         14.49591        4.19881      -13.29189
H         16.08925        3.84056      -13.27490
H         16.55454        6.83664       -6.45934
H         16.54154        6.98848       -8.21007
H         16.43520        4.40945       -8.35030
H         16.54368        4.35555       -6.59493
H         18.73997        5.64164       -6.72164
H         18.67219        5.51989       -8.47803
H         18.66478        3.00248       -8.29919
H         18.67173        3.12909       -6.54197
H         20.88830        4.36637       -6.66967
H         20.90586        4.11016       -8.41283
H         20.86443        1.61224       -8.03883
H         20.81379        1.87844       -6.29814
H         23.04570        3.08273       -6.44554
H         23.10761        2.71428       -8.16704
H         23.01379        0.23909       -7.61654
H         22.98623        0.63865       -5.90112
H         25.23100        1.80507       -6.17043
H         25.26080        1.30733       -7.85972
H         25.14746       -1.11825       -7.12011
H         25.16938       -0.58759       -5.43995
H         27.42704        0.51518       -5.84287
H         27.40506       -0.08473       -7.50122
H         27.29882       -2.45741       -6.62941
H         27.36180       -1.83968       -4.97479
H         29.56197       -0.76293       -4.15667
H         32.14704       -0.89450       -5.02726
H         32.04222       -1.97856       -7.52886
H         29.39783       -2.44399       -8.03455
