79

C          0.71169        0.11704       -0.45870
C          2.24036        0.19639       -0.48240
C          2.84058        0.64405        0.85465
C          4.36846        0.76326        0.84393
C          4.94382        1.18643        2.19900
C          6.46159        1.40109        2.20380
C          6.99017        1.78821        3.58866
C          8.48850        2.10404        3.63510
C          8.94586        2.50075        5.04347
C         10.44430        2.82955        5.13262
C         10.91857        3.37148        6.48491
N         10.25555        4.74609        6.68106
C         10.50912        5.40968        8.01341
C         10.17789        4.41283        9.11913
O         10.96537        3.23935        8.91806
C         10.61933        2.51412        7.73290
C         11.42872        1.20891        7.77724
C         10.77004        0.01005        7.13582
O         10.93521       -0.16879        5.71374
C         11.56151       -1.11168        6.60782
C         10.46117        4.96089       10.51286
C          9.95548        4.03089       11.62230
C         10.22655        4.56467       13.03177
C          9.65609        3.65806       14.12799
C          9.89595        4.19718       15.54194
C          9.24853        3.32241       16.60385
O          9.49968        3.93656       17.88798
C          8.83651        3.37205       18.94362
O          8.09370        2.41520       18.83152
C          9.15853        4.09813       20.19697
C          8.60699        3.73818       21.36098
H          0.30938       -0.20839       -1.42766
H          0.26463        1.09508       -0.22562
H          0.35984       -0.59539        0.30245
H          2.56148        0.89230       -1.27592
H          2.65772       -0.78717       -0.75670
H          2.53459       -0.06406        1.64533
H          2.40431        1.61807        1.13988
H          4.67254        1.49103        0.07107
H          4.81195       -0.20161        0.54182
H          4.68122        0.42713        2.95678
H          4.44982        2.11898        2.52562
H          6.72258        2.18863        1.47542
H          6.97014        0.48511        1.85723
H          6.77157        0.97209        4.29946
H          6.42521        2.66493        3.95433
H          8.72112        2.91803        2.92675
H          9.07116        1.22865        3.30436
H          8.70195        1.68097        5.73596
H          8.31940        3.35947        5.36501
H         10.72027        3.55844        4.34909
H         11.02736        1.92298        4.91640
H         11.99874        3.58372        6.46666
H          9.24042        4.60862        6.54942
H         10.55878        5.35645        5.91052
H          9.88786        6.31420        8.05772
H         11.57071        5.68846        8.04377
H          9.10094        4.14195        9.04587
H          9.53547        2.28206        7.76827
H         11.56550        0.98976        8.84792
H         12.43374        1.35953        7.35355
H          9.75497       -0.21341        7.48918
H         12.65400       -1.06107        6.64196
H         11.13181       -2.11642        6.59490
H          9.97986        5.94898       10.60524
H         11.54694        5.12547       10.61072
H         10.42273        3.04054       11.50542
H          8.86940        3.87850       11.49377
H          9.79236        5.57463       13.13322
H         11.31364        4.68440       13.17829
H         10.09594        2.65001       14.03460
H          8.57175        3.53228       13.96289
H          9.48811        5.21749       15.62759
H         10.97713        4.27295       15.74063
H          9.66359        2.30144       16.60766
H          8.16105        3.23287       16.45583
H          9.85755        4.93180       20.11754
H          7.91013        2.89954       21.40562
H          8.83429        4.26600       22.28648
