47

C          6.43222        4.06475       -2.70689
C          6.13212        2.79374       -1.90941
C          6.68741        1.52258       -2.56224
C          6.38896        0.24789       -1.76723
C          6.94508       -1.02246       -2.41937
C          6.64980       -2.28766       -1.60752
C          7.13184       -3.58976       -2.25044
N          8.59102       -3.64786       -2.41387
N          9.38992       -3.94266       -1.32864
C         10.61575       -3.87699       -1.78423
N         10.62446       -3.53983       -3.12084
C          9.33692       -3.38864       -3.50469
N          8.92619       -2.96872       -4.72456
N          9.91006       -3.10052       -5.79451
N          9.31963       -4.07605       -6.70063
N         10.04405       -1.90200       -6.52111
C         11.84969       -4.15614       -0.98784
C         13.15416       -3.85324       -1.71952
O         13.24619       -3.56251       -2.90491
O         14.18483       -3.97353       -0.88601
C         15.50895       -3.75207       -1.45425
H          6.02141        4.95432       -2.21102
H          5.99605        4.01774       -3.71578
H          7.51557        4.22051       -2.82106
H          5.04200        2.68662       -1.78083
H          6.54760        2.88845       -0.89209
H          7.77990        1.62715       -2.69083
H          6.27044        1.42519       -3.58048
H          5.29810        0.14211       -1.63920
H          6.80453        0.34445       -0.74940
H          8.03515       -0.90543       -2.55291
H          6.52062       -1.12693       -3.43440
H          5.56333       -2.39500       -1.46002
H          7.08944       -2.20926       -0.60076
H          6.68674       -3.73748       -3.24624
H          6.86504       -4.46087       -1.63874
H         11.49409       -3.43721       -3.66066
H          7.97567       -3.21712       -5.02082
H          9.78175       -4.96773       -6.49889
H          9.63732       -3.79148       -7.63162
H         10.67315       -1.28374       -6.01101
H          9.14286       -1.43010       -6.66488
H         11.86750       -5.21938       -0.69772
H         11.81880       -3.59530       -0.04316
H         16.20114       -3.92748       -0.62747
H         15.59002       -2.72265       -1.82176
H         15.68843       -4.45718       -2.27397
