105

C         -1.12374       -4.90696      -13.94223
C          0.37886       -5.17970      -14.04872
C          1.23813       -4.10694      -13.37090
C          2.74480       -4.36416      -13.47183
C          3.59527       -3.28515      -12.79415
C          5.10335       -3.53616      -12.88946
C          5.94706       -2.45759      -12.20286
C          7.45576       -2.70950      -12.28625
C          8.29406       -1.63766      -11.58258
C          9.80399       -1.88264      -11.66780
C         10.63495       -0.82416      -10.93537
C         12.14753       -1.02818      -11.07057
C         12.97088        0.00596      -10.29479
C         14.48169       -0.12475      -10.52161
C         15.29715        0.85961       -9.67421
C         16.82813        0.71401       -9.79831
P         17.50430        0.98383      -11.46296
C         16.98027        2.59959      -12.15272
O         17.45330        2.61558      -13.47208
C         16.98714        3.77147      -14.22170
C         17.45145        3.65124      -15.66118
C         16.99962        4.85801      -16.49616
C         17.44168        4.79776      -17.96368
C         17.03536        6.05075      -18.74698
C         17.49059        6.06337      -20.21057
C         17.11624        7.36270      -20.93254
C         17.56417        7.42638      -22.39636
C         17.19892        8.74852      -23.08200
C         17.64288        8.82342      -24.54504
C         19.31239        0.82481      -11.51345
C         19.86289       -0.47455      -10.89083
C         19.33441       -1.77344      -11.51272
C         19.98626       -3.02476      -10.91236
C         19.47420       -4.33556      -11.52149
C         20.11490       -5.57672      -10.89530
H         -1.71355       -5.69154      -14.43599
H         -1.38932       -3.94738      -14.41076
H         -1.44728       -4.86019      -12.89149
H          0.66588       -5.25623      -15.11136
H          0.60826       -6.16286      -13.60357
H          0.95187       -4.03116      -12.30668
H          1.00606       -3.12215      -13.81428
H          3.03204       -4.44113      -14.53555
H          2.97861       -5.34696      -13.02541
H          3.30600       -3.20838      -11.73104
H          3.36043       -2.30266      -13.24066
H          5.39569       -3.60790      -13.95213
H          5.33831       -4.51990      -12.44586
H          5.64883       -2.38303      -11.14213
H          5.71609       -1.47427      -12.64953
H          7.75773       -2.77290      -13.34674
H          7.68522       -3.69701      -11.84841
H          7.99313       -1.57918      -10.52170
H          8.06106       -0.64897      -12.01606
H         10.10795       -1.91739      -12.72909
H         10.03705       -2.87972      -11.25461
H         10.36020       -0.82202       -9.86603
H         10.36914        0.17748      -11.31667
H         12.42365       -0.99180      -12.13953
H         12.41545       -2.04131      -10.72327
H         12.75527       -0.08748       -9.21669
H         12.64852        1.02237      -10.58115
H         14.68564        0.02628      -11.59757
H         14.80277       -1.15635      -10.29405
H         15.05648        0.70965       -8.61056
H         14.99921        1.89602       -9.89982
H         17.15354       -0.29807       -9.50764
H         17.35820        1.41917       -9.13786
H         16.95526        0.02651      -12.34157
H         17.39909        3.40733      -11.51646
H         15.87478        2.65536      -12.08616
H         17.38695        4.68562      -13.74622
H         15.88351        3.80615      -14.16079
H         17.05217        2.71911      -16.09203
H         18.55001        3.56961      -15.68048
H         17.39456        5.78311      -16.04157
H         15.90000        4.94403      -16.45314
H         17.01219        3.90111      -18.44313
H         18.53756        4.67418      -18.01122
H         17.44661        6.93982      -18.23705
H         15.93758        6.16406      -18.70810
H         17.05051        5.20251      -20.74374
H         18.58471        5.92105      -20.25583
H         17.55353        8.21598      -20.38423
H         16.02203        7.50351      -20.88186
H         17.11463        6.58749      -22.95664
H         18.65689        7.27597      -22.45337
H         17.64910        9.58303      -22.51767
H         16.10758        8.89838      -23.01992
H         18.73378        8.71399      -24.63805
H         17.36675        9.78444      -25.00030
H         17.17938        8.02653      -25.14558
H         19.70981        1.71577      -11.00102
H         19.58118        0.91897      -12.57751
H         19.67880       -0.47211       -9.80450
H         20.95725       -0.43482      -11.00386
H         19.50026       -1.75493      -12.60379
H         18.23925       -1.85185      -11.37510
H         19.81532       -3.03674       -9.82150
H         21.07989       -2.96191      -11.04599
H         19.66362       -4.32906      -12.60797
H         18.37804       -4.38811      -11.40488
H         21.20802       -5.56645      -11.01517
H         19.73977       -6.49709      -11.36165
H         19.89998       -5.63888       -9.81837
