46

C          1.50288       -5.86235       -5.37134
C          3.00527       -5.62976       -5.20096
C          3.35968       -4.15739       -4.96576
C          4.86034       -3.92425       -4.75378
C          5.18971       -2.46041       -4.51618
O          6.59940       -2.32652       -4.24918
C          6.99183       -0.98507       -4.04805
C          8.47984       -0.96976       -3.70499
N          9.31230       -1.54665       -4.78415
C          9.41627       -0.83110       -6.05905
O          8.55690       -1.42206       -7.02308
C          8.94476       -2.74280       -7.35355
N          9.57275       -3.37364       -6.16098
C          9.49963       -2.87334       -4.91271
N          9.64307       -3.70250       -3.85201
I         10.81224       -3.29304       -2.20027
C          9.88198       -2.79662       -8.56223
C         10.12054       -4.21634       -9.09017
C         10.99768       -4.22248      -10.33607
F         10.43526       -3.51217      -11.34526
F         12.21744       -3.67547      -10.08371
F         11.19737       -5.48485      -10.77798
H          1.27859       -6.92494       -5.53344
H          1.10571       -5.30284       -6.23077
H          0.94746       -5.53835       -4.47896
H          3.54049       -5.99418       -6.09424
H          3.37865       -6.23060       -4.35474
H          2.80570       -3.78859       -4.08569
H          3.00686       -3.55705       -5.82199
H          5.42146       -4.28445       -5.63286
H          5.20897       -4.51180       -3.88895
H          4.61977       -2.06850       -3.65295
H          4.92439       -1.84775       -5.39905
H          6.44974       -0.52356       -3.19916
H          6.78085       -0.37197       -4.94709
H          8.65485       -1.54073       -2.78617
H          8.82570        0.05741       -3.53004
H         10.46811       -0.84742       -6.38913
H          9.08244        0.20167       -5.92128
H          8.00382       -3.27618       -7.57261
H         10.00067       -4.28629       -6.29041
H          9.57945       -4.69934       -4.04329
H         10.83802       -2.31128       -8.31628
H          9.39710       -2.19394       -9.34348
H          9.17315       -4.70470       -9.36243
H         10.63557       -4.86189       -8.36163
