54

C          3.60323       -0.19672        3.60817
C          2.95312       -1.47029        3.10338
O          3.88650       -2.25142        2.27137
C          3.95756       -1.91483        0.97355
O          3.28603       -1.06393        0.42306
C          5.04444       -2.73646        0.26352
C          4.43121       -3.47069       -0.96988
C          3.73306       -2.64105       -2.06477
C          4.52713       -1.50550       -2.71997
C          3.82143       -0.96314       -3.96722
S          4.94640        0.14939       -4.83803
O          5.15893        1.33756       -4.03951
O          6.04804       -0.65168       -5.31509
O          4.05579        0.54759       -6.12893
N          5.60420       -4.25139       -1.65932
C          5.21296       -5.70996       -1.76656
C          4.35255       -5.91566       -0.51847
C          3.51142       -4.62648       -0.49149
C          3.52906       -7.20728       -0.49533
C          4.38459       -8.48089       -0.50259
C          3.58312       -9.74433       -0.18963
O          4.40992      -10.88359       -0.04991
O          5.09615       -8.63087       -1.75119
C          6.26838       -1.82342        0.03711
H          2.91013        0.31332        4.29122
H          3.83006        0.49232        2.78504
H          4.52513       -0.41434        4.16272
H          2.05575       -1.26555        2.50581
H          2.70653       -2.15945        3.91920
H          5.34536       -3.53039        0.96682
H          2.81461       -2.23553       -1.61968
H          3.40591       -3.35772       -2.84002
H          5.53803       -1.83460       -3.02187
H          4.66122       -0.68250       -2.00819
H          2.91682       -0.39288       -3.71653
H          3.56366       -1.75244       -4.68779
H          3.78405        1.48077       -6.02616
H          6.45417       -4.15604       -1.08946
H          5.82180       -3.83263       -2.57285
H          6.11055       -6.33168       -1.83566
H          4.62985       -5.82860       -2.68949
H          5.02333       -5.92801        0.36037
H          3.10926       -4.41862        0.50758
H          2.65493       -4.72845       -1.17414
H          2.82967       -7.22332       -1.35001
H          2.90672       -7.19808        0.41367
H          5.18516       -8.39486        0.25145
H          2.80992       -9.89153       -0.97521
H          3.05383       -9.62711        0.76789
H          4.97743      -10.94682       -0.83643
H          4.45391       -8.89965       -2.43154
H          6.00870       -0.89308       -0.47682
H          7.07477       -2.30656       -0.53716
H          6.70010       -1.56150        1.01089
