90

C          4.83103       -1.49790       -1.67540
C          3.57595       -0.67510       -1.80073
C          2.44854       -0.95779       -1.01072
C          1.28625       -0.19573       -1.10756
C          1.20819        0.88162       -2.00507
C          2.31906        1.15225       -2.81062
C          3.48432        0.38808       -2.70923
C         -0.03884        1.73363       -2.11541
C         -0.46492        2.35362       -0.78781
N          0.54556        3.29666       -0.19828
C         -0.22118        3.93532        0.91729
O         -1.52510        4.08650        0.41667
C         -1.74401        3.22805       -0.74931
C         -1.96593        4.14405       -1.97860
C         -1.08359        5.38073       -2.13708
O          0.31625        5.03824       -2.27298
C          1.10203        6.11155       -2.82823
C          2.58378        5.79558       -2.71919
O          3.07085        6.05212       -1.39330
C          3.23120        5.01735       -0.50506
C          3.64010        3.72434       -0.84495
C          3.73984        2.73972        0.14866
C          3.47387        3.01121        1.49980
C          3.10798        4.33640        1.81833
C          2.99014        5.32190        0.84533
C          3.59245        1.95280        2.60266
C          4.65571        2.35129        3.68305
C          6.14208        2.70798        3.36876
C          6.88051        1.63314        2.54831
C          6.29396        4.06375        2.64944
C          6.83335        2.82110        4.74589
C          2.22953        1.86382        3.33946
C          3.86117        0.54517        2.03589
C         -3.01374        2.37173       -0.50679
C         -2.85636        1.31466        0.55931
C         -2.62241       -0.02394        0.20536
C         -2.38324       -0.99415        1.18207
C         -2.37587       -0.63661        2.53270
C         -2.62875        0.68849        2.89926
C         -2.87266        1.65588        1.92170
H          4.66534       -2.52665       -2.02828
H          5.15768       -1.56765       -0.62780
H          5.65386       -1.07229       -2.26254
H          2.48376       -1.79292       -0.30813
H          0.42861       -0.45424       -0.48088
H          2.27170        1.97184       -3.53184
H          4.33749        0.62202       -3.34909
H         -0.88815        1.12102       -2.46111
H          0.11693        2.51494       -2.87120
H         -0.58771        1.55916       -0.03823
H          0.77672        4.02240       -0.92304
H          1.42384        2.84047        0.11357
H          0.21458        4.91224        1.15910
H         -0.17514        3.26189        1.78947
H         -2.99507        4.53011       -1.90927
H         -1.93316        3.53671       -2.89502
H         -1.20718        6.06276       -1.27883
H         -1.40497        5.91521       -3.04593
H          0.88938        7.05350       -2.29403
H          0.82934        6.24015       -3.89098
H          3.13763        6.47086       -3.38624
H          2.78367        4.76221       -3.03971
H          3.87930        3.45731       -1.87287
H          4.04604        1.74120       -0.15867
H          2.92253        4.61323        2.85696
H          2.70886        6.34249        1.10851
H          4.66769        1.51239        4.39942
H          4.24751        3.20580        4.24947
H          6.53501        1.60009        1.50576
H          6.76717        0.63000        2.98452
H          7.95603        1.86122        2.52153
H          5.92028        4.03813        1.61816
H          7.35613        4.34508        2.60505
H          5.76373        4.86621        3.18339
H          6.80910        1.86355        5.28669
H          6.34542        3.57717        5.37899
H          7.88628        3.11377        4.62822
H          1.93047        2.82335        3.78254
H          2.28021        1.12646        4.15285
H          1.43571        1.53633        2.64943
H          4.77324        0.48022        1.43348
H          3.02220        0.20727        1.41273
H          3.96905       -0.16776        2.86454
H         -3.30009        1.90400       -1.46137
H         -3.81878        3.07509       -0.24699
H         -2.63291       -0.31253       -0.84879
H         -2.21266       -2.03049        0.88795
H         -2.19155       -1.39050        3.29836
H         -2.64961        0.96759        3.95343
H         -3.07891        2.68627        2.21523
