62

O          8.51575       -0.73301       -3.29673
C          8.07684       -2.08844       -3.27739
C          7.64989       -2.40658       -1.83888
C          6.47515       -1.60113       -1.37500
C          6.33222       -0.24187       -1.22938
N          5.04210        0.00085       -0.78558
C          4.40051       -1.17164       -0.65701
N          5.24832       -2.15302       -1.00887
C          4.91526       -3.58978       -0.96686
O          3.55977       -3.67444       -0.66972
C          3.07560       -5.04070       -0.54407
C          3.41148       -5.68145        0.79624
C          2.82156       -7.09262        0.91746
C          3.11944       -7.74449        2.27164
C          2.58136       -9.17271        2.39493
C          2.88974       -9.81660        3.74994
C          2.39053      -11.25890        3.87527
C          2.71962      -11.89821        5.22729
C          2.24300      -13.34808        5.35767
C          2.58965      -13.97333        6.71040
C          4.44954        1.31261       -0.47393
C          4.52623        2.29833       -1.65202
C          3.64240        3.52072       -1.38811
O          2.31600        3.06177       -1.14985
O          5.86740        2.69117       -1.93231
H          8.80419       -0.50602       -4.19423
H          8.88911       -2.78005       -3.55928
H          7.23124       -2.24670       -3.97160
H          8.50657       -2.20862       -1.17666
H          7.43511       -3.48095       -1.76411
H          7.02663        0.56105       -1.43975
H          3.38074       -1.31803       -0.32550
H          5.55706       -4.06204       -0.19993
H          5.15244       -4.02608       -1.95633
H          3.46416       -5.63823       -1.38841
H          1.98868       -4.94995       -0.67118
H          3.02074       -5.04065        1.60286
H          4.50448       -5.73925        0.93451
H          3.22021       -7.72962        0.10921
H          1.72984       -7.04901        0.76345
H          2.69317       -7.12086        3.07643
H          4.21089       -7.75287        2.43864
H          3.01010       -9.79409        1.58931
H          1.49003       -9.16988        2.22913
H          2.44437       -9.20476        4.55392
H          3.98041       -9.79480        3.92175
H          2.83130      -11.86824        3.06676
H          1.29866      -11.28435        3.71357
H          2.27117      -11.29410        6.03573
H          3.81115      -11.85979        5.39156
H          2.68808      -13.94958        4.54718
H          1.15197      -13.38700        5.20017
H          3.67682      -13.97741        6.87934
H          2.23844      -15.01195        6.77753
H          2.12940      -13.41202        7.53720
H          4.97350        1.72867        0.40010
H          3.39882        1.14627       -0.20480
H          4.16472        1.79048       -2.56020
H          3.70463        4.17925       -2.27009
H          4.04010        4.07740       -0.51387
H          1.71961        3.82489       -1.10950
H          6.12048        3.40385       -1.32027
