107

C          0.67694       -3.29580        3.94128
C          1.74156       -2.23950        4.24719
C          2.93953       -2.29363        3.29165
C          4.01675       -1.24888        3.60431
C          5.23015       -1.33435        2.66820
C          6.28942       -0.23157        2.86063
C          6.84137       -0.08255        4.27247
C          7.81531        1.06314        4.57468
C          7.13058        2.43466        4.59707
C          8.11816        3.57641        4.85459
C          7.46282        4.93052        5.13438
S          6.38736        4.98383        6.60079
C          7.55573        5.21547        7.95317
S          9.21035        5.18325        7.73318
N          6.94857        5.41538        9.14727
C          5.49098        5.51313        9.31858
C          4.83233        4.18699        9.70887
C          7.74908        5.58772       10.37349
C          8.10217        7.04963       10.65185
C          8.42715        0.66589        5.94338
C          8.22356       -0.85203        6.10083
N          7.57218       -1.33461        4.80736
C          8.47662       -2.12109        3.85582
C          9.70899       -1.44581        3.25513
C         10.90884       -1.21321        4.18278
C         12.16835       -0.75994        3.43614
C         13.34917       -0.51069        4.38080
C         14.61881       -0.02203        3.67665
C         15.78435        0.22522        4.64059
C         17.04697        0.75833        3.95616
C         18.20476        1.02217        4.92466
C         19.45223        1.59509        4.24454
C         20.61059        1.87079        5.20863
C         21.83978        2.48140        4.52779
C         22.99258        2.78730        5.48962
C         24.20754        3.42233        4.80593
C         25.36037        3.74369        5.76361
C         26.56068        4.39350        5.07012
H         -0.16458       -3.22975        4.64311
H          1.08880       -4.31355        4.01208
H          0.27208       -3.17341        2.92611
H          2.09841       -2.36556        5.28407
H          1.28890       -1.23460        4.20375
H          2.58971       -2.15467        2.25457
H          3.38759       -3.30275        3.32500
H          4.32576       -1.37728        4.65924
H          3.57872       -0.23714        3.54559
H          4.88290       -1.27967        1.62508
H          5.68625       -2.33688        2.75903
H          5.82974        0.74038        2.62214
H          7.10926       -0.35266        2.13586
H          5.99490        0.01677        4.97375
H          8.60698        1.07839        3.80834
H          6.35923        2.43316        5.38746
H          6.60555        2.60823        3.64357
H          8.78336        3.69577        3.98218
H          8.76979        3.34859        5.71076
H          6.79387        5.24239        4.31769
H          8.23249        5.70147        5.27590
H          5.05356        5.90951        8.39186
H          5.30980        6.27147       10.09440
H          4.97321        3.43084        8.92551
H          3.75333        4.33263        9.85478
H          5.24728        3.79461       10.64748
H          8.66210        4.99038       10.25627
H          7.16088        5.16326       11.20064
H          8.72423        7.45646        9.84495
H          8.66687        7.12247       11.59128
H          7.20381        7.67455       10.75174
H          7.90880        1.19526        6.75437
H          9.48563        0.93881        6.01219
H          7.52496       -1.09044        6.91174
H          9.14340       -1.42195        6.25963
H          6.84274       -2.01058        5.05966
H          7.80954       -2.46438        3.05612
H          8.77485       -3.00561        4.43831
H          9.43281       -0.51809        2.73333
H         10.02217       -2.13692        2.45425
H         11.12926       -2.14598        4.73122
H         10.67658       -0.45375        4.94416
H         11.94718        0.16277        2.87154
H         12.44498       -1.51878        2.68429
H         13.57337       -1.43974        4.93408
H         13.05183        0.23062        5.14401
H         14.39542        0.90936        3.12724
H         14.92260       -0.75886        2.91297
H         16.02341       -0.71268        5.17219
H         15.46545        0.94010        5.41965
H         16.80201        1.69223        3.42009
H         17.37386        0.04316        3.18102
H         18.46807        0.08438        5.44496
H         17.86815        1.71906        5.71262
H         19.18303        2.53133        3.72420
H         19.79054        0.90014        3.45589
H         20.89887        0.93198        5.71361
H         20.26446        2.54871        6.00884
H         21.54284        3.41114        4.01084
H         22.19608        1.79888        3.73608
H         23.30262        1.85715        5.99786
H         22.63135        3.45983        6.28785
H         23.89327        4.34892        4.29313
H         24.57290        2.74904        4.01010
H         25.68240        2.81674        6.26808
H         24.99211        4.40886        6.56328
H         26.97481        3.73727        4.28988
H         27.36876        4.61330        5.78136
H         26.27754        5.34044        4.58646
