65

C          0.44871        8.95284        4.11506
C          1.97856        8.96195        4.13866
C          2.59630        7.56048        4.18020
C          4.12730        7.57419        4.21665
C          4.75778        6.18175        4.31121
C          6.28816        6.21127        4.36523
C          6.92681        4.82382        4.47767
C          8.45706        4.86645        4.54769
C          9.09795        3.47829        4.64590
C         10.63284        3.47720        4.63793
C         11.24716        4.13526        5.90016
C         12.74497        4.09099        5.87970
C         13.48779        5.05966        5.18179
C         14.87515        5.00242        5.13772
C         15.74402        6.01506        4.45461
C         16.05376        7.24207        5.35276
O         14.87519        7.95359        5.70293
N         15.48906        3.98699        5.80294
C         14.83356        3.01298        6.49131
C         13.44753        3.05693        6.52429
C         15.67090        1.98433        7.20508
C         16.94560        1.55464        6.47540
O         17.78489        2.70494        6.31610
C         19.09064        2.39198        5.77890
C         19.87302        3.67916        5.62234
H          0.04168        9.97322        4.09938
H          0.03992        8.44530        5.00142
H          0.06594        8.42804        3.22733
H          2.32984        9.53447        5.01382
H          2.35870        9.49901        3.25324
H          2.25452        6.98328        3.30306
H          2.21448        7.02111        5.06497
H          4.46242        8.18172        5.07591
H          4.50856        8.08751        3.31637
H          4.43423        5.57232        3.44944
H          4.37194        5.66732        5.20864
H          6.60843        6.82963        5.22259
H          6.67543        6.71865        3.46412
H          6.61869        4.20691        3.61588
H          6.53508        4.31180        5.37366
H          8.75066        5.48604        5.41279
H          8.84785        5.38298        3.65284
H          8.75755        2.86605        3.79507
H          8.73606        2.96359        5.55251
H         11.00039        4.00516        3.74213
H         11.00223        2.44199        4.56437
H         10.87321        3.61441        6.79448
H         10.91781        5.18240        5.96518
H         12.98409        5.88268        4.67627
H         15.24266        6.36238        3.54073
H         16.69696        5.55259        4.15321
H         16.78006        7.88072        4.82726
H         16.52378        6.90584        6.29051
H         14.77894        8.72038        5.11836
H         16.52466        3.88363        5.79245
H         12.90797        2.28214        7.06973
H         15.05177        1.09802        7.39820
H         15.95356        2.39221        8.19080
H         16.71161        1.11289        5.48823
H         17.46442        0.78777        7.07524
H         18.97052        1.87269        4.81133
H         19.59486        1.70117        6.47645
H         19.39662        4.35200        4.89543
H         20.88334        3.45602        5.25591
H         19.96680        4.20287        6.58253
