38

Br         2.53755       -3.32891       -1.60525
C          3.67563       -1.89570       -0.91024
C          4.15763       -0.99126       -2.03603
C          5.02196        0.15492       -1.48549
N          5.45613        1.10548       -2.52525
C          4.63595        2.05189       -3.02760
N          4.88908        2.72363       -4.18418
C          3.86442        3.62046       -4.35446
N          2.99237        3.55815       -3.38757
N          3.46540        2.56726       -2.54916
C          2.69815        2.29915       -1.30516
O          3.41862        2.56485       -0.15065
C          3.57696        3.97605        0.15946
C          4.33114        4.08374        1.46678
C          6.81083        0.94992       -3.09558
C          6.91894        0.35890       -4.51487
N          6.77339        1.40517       -5.55788
H          4.50262       -2.39487       -0.39269
H          3.06557       -1.35892       -0.17431
H          3.28949       -0.58164       -2.57641
H          4.73118       -1.58147       -2.76654
H          5.93778       -0.24187       -1.02831
H          4.50639        0.70768       -0.68788
H          5.64400        2.37293       -4.88864
H          3.79480        4.30304       -5.19494
H          2.41633        1.23849       -1.28359
H          1.79770        2.92216       -1.42114
H          2.57460        4.43228        0.22653
H          4.12368        4.47123       -0.66121
H          3.78629        3.58308        2.27705
H          4.45413        5.14006        1.73816
H          5.32957        3.63402        1.38702
H          7.34600        0.29081       -2.40293
H          7.32307        1.92645       -3.06029
H          6.13174       -0.39181       -4.66533
H          7.88473       -0.16333       -4.59548
H          6.53120        0.98705       -6.45776
H          7.65922        1.89546       -5.69878
