47

C          6.34352        0.95922       -2.15680
C          5.25243        0.82638       -1.09190
C          5.69775       -0.03826        0.09444
C          4.58414       -0.13916        1.17374
C          4.96817       -1.02142        2.29669
N          4.33888       -2.11875        2.59776
C          4.90475       -2.89592        3.73354
C          5.89621       -1.87296        4.34731
C          6.13829       -0.84672        3.21016
C          7.16318       -2.52949        4.90415
C          8.12064       -1.57070        5.63559
C          7.60829       -1.13279        7.00935
N          8.45946       -0.09463        7.56151
C          8.10820        0.33986        8.91956
C          8.85833        1.63292        9.23133
O          8.57625        2.63223        8.25821
O          9.42691       -2.14811        5.73375
C          3.81955       -3.40734        4.66998
H          5.99491        1.57809       -2.99339
H          6.63063       -0.01976       -2.56635
H          7.24803        1.43251       -1.74890
H          4.34446        0.39015       -1.53971
H          4.96483        1.82475       -0.72322
H          6.60791        0.38791        0.54485
H          5.95840       -1.05083       -0.25500
H          3.64280       -0.48407        0.71954
H          4.40350        0.86856        1.58611
H          3.52480       -2.44509        2.07325
H          5.45013       -3.74669        3.28808
H          5.36012       -1.35352        5.15878
H          7.05438       -1.07469        2.63300
H          6.24168        0.19476        3.54271
H          7.72677       -2.99190        4.07745
H          6.87850       -3.34684        5.58927
H          8.28406       -0.66532        5.02696
H          7.53125       -2.04081        7.65550
H          6.58362       -0.72944        6.92779
H          9.43209       -0.41077        7.53255
H          8.31909       -0.42591        9.69362
H          7.02495        0.54182        8.93824
H          9.94750        1.43098        9.28688
H          8.54747        2.02828       10.20842
H          8.61217        2.16366        7.40328
H          9.38283       -2.92002        6.32421
H          3.22468       -2.57991        5.08035
H          4.28755       -3.93982        5.50822
H          3.14684       -4.11764        4.17037
