76

C          1.78151        2.89001       -1.36222
C          2.73820        1.69551       -1.34980
C          4.06301        1.98212       -2.06643
C          5.04080        0.80030       -2.03348
C          6.35067        1.14196       -2.72764
O          7.34227        0.07752       -2.55138
C          7.44559       -0.83746       -3.53094
O          6.76812       -0.86919       -4.54196
C          8.57726       -1.80744       -3.20373
C          8.75421       -2.90654       -4.26181
C          7.49733       -3.79688       -4.32310
N          7.47042       -4.71583       -3.18672
C          8.58526       -5.30099       -2.73162
N          8.51257       -6.28565       -1.80921
N          9.77020       -4.92696       -3.21587
C         10.04076       -3.78431       -4.12413
C         10.52607       -4.35714       -5.50050
C          9.61504       -5.22948       -6.39943
C          8.81541       -4.43110       -7.46246
C          9.64522       -3.70449       -8.52720
C         10.46729       -6.32646       -7.06274
C         11.32080       -3.05483       -3.59285
C         11.51568       -2.45525       -2.18325
O         10.93349       -3.15406       -1.03099
C         11.38397       -4.36464       -0.65263
O         12.02387       -5.12478       -1.36193
C         10.96904       -4.66070        0.77520
S         10.33923       -6.35475        1.01834
C         13.02802       -2.23707       -1.97868
O         13.39894       -1.94820       -0.62075
C         13.02999       -0.72741       -0.13097
O         12.40441        0.09367       -0.76815
C         13.49569       -0.55751        1.29663
S         12.43761       -1.47771        2.47552
H          0.84236        2.65695       -0.84300
H          1.52738        3.18867       -2.38989
H          2.22743        3.76406       -0.86504
H          2.25114        0.82512       -1.82078
H          2.94720        1.40008       -0.30772
H          4.54078        2.86350       -1.60425
H          3.85764        2.26235       -3.11388
H          4.58694       -0.07773       -2.52113
H          5.25188        0.51936       -0.98869
H          6.82622        2.02177       -2.27501
H          6.21038        1.31186       -3.80315
H          8.41839       -2.20898       -2.19122
H          9.47369       -1.17932       -3.13897
H          8.82411       -2.40482       -5.23717
H          7.45038       -4.36573       -5.25864
H          6.60366       -3.16694       -4.27948
H          6.58509       -4.95440       -2.75691
H          7.59672       -6.57882       -1.48970
H          9.26771       -6.42808       -1.12241
H         10.59412       -5.40202       -2.84179
H         11.42107       -4.95315       -5.26338
H         10.89733       -3.50111       -6.08541
H          8.88494       -5.75683       -5.76100
H          8.16117       -3.69033       -6.97722
H          8.13490       -5.13819       -7.96335
H         10.31959       -2.95121       -8.09369
H          8.98270       -3.17417       -9.22320
H         10.25757       -4.39527       -9.12143
H         11.30465       -5.90144       -7.63449
H          9.86543       -6.93026       -7.75585
H         10.89291       -7.00327       -6.30886
H         11.51155       -2.22172       -4.28754
H         12.14280       -3.76755       -3.75534
H         11.02365       -1.48421       -2.09148
H         10.17671       -3.97713        1.09920
H         11.83694       -4.48038        1.42581
H         11.47168       -6.99683        0.64419
H         13.34132       -1.41256       -2.63648
H         13.59460       -3.14220       -2.22565
H         13.50667        0.50729        1.54921
H         14.49972       -0.97966        1.42772
H         11.33784       -0.70309        2.31761
