63

C          3.13684       -3.05980        2.98524
C          3.89316       -2.10792        2.05534
C          4.39950       -2.79527        0.78239
C          5.16558       -1.85960       -0.15962
C          5.67401       -2.58896       -1.41258
C          6.48004       -1.64694       -2.30143
N          6.89536       -2.19476       -3.66250
C          5.67906       -2.30917       -4.58807
C          5.81675       -3.68803       -5.25681
O          7.16223       -4.09417       -4.97550
C          7.41218       -3.71788       -3.66259
C          8.86565       -3.99737       -3.28709
C          9.18337       -3.64875       -1.81445
O         10.56267       -3.78523       -1.51538
C          9.21541       -5.47209       -3.62511
C          8.42393       -6.55082       -2.87838
C          7.96956       -1.31534       -4.29238
C          7.66471        0.17031       -4.44834
C          8.91078        0.86754       -5.07141
N          8.46374        2.13999       -5.61857
C          9.10671        2.61852       -6.84727
C          8.26416        3.71157       -7.50767
O          6.96922        3.25141       -7.89462
O          6.55593        0.38730       -5.29620
H          2.78060       -2.54011        3.88408
H          3.77813       -3.89023        3.31525
H          2.26018       -3.49677        2.48537
H          4.74828       -1.66640        2.59422
H          3.24025       -1.26347        1.77778
H          3.54428       -3.23712        0.24160
H          5.05090       -3.64224        1.06194
H          6.02033       -1.41516        0.37866
H          4.51775       -1.01811       -0.45814
H          4.81222       -3.00794       -1.95796
H          6.28871       -3.44237       -1.09067
H          7.39922       -1.33192       -1.79183
H          5.90005       -0.74024       -2.51962
H          5.71430       -1.46901       -5.28667
H          4.77456       -2.22988       -3.97776
H          5.69911       -3.65259       -6.34487
H          5.10647       -4.41856       -4.83519
H          6.70840       -4.20473       -2.96658
H          9.52092       -3.38131       -3.92126
H          8.55806       -4.24859       -1.12923
H          8.95932       -2.59244       -1.60591
H         10.76985       -4.72040       -1.36427
H         10.29128       -5.59049       -3.42666
H          9.09966       -5.61163       -4.70765
H          8.51281       -6.46743       -1.78560
H          8.79677       -7.54533       -3.15347
H          7.35357       -6.53359       -3.12855
H          8.17868       -1.75855       -5.27507
H          8.86006       -1.41597       -3.65863
H          7.48136        0.62334       -3.45219
H          9.28115        0.25395       -5.90770
H          9.72517        0.94554       -4.32859
H          8.45833        2.87226       -4.90772
H          9.19067        1.76188       -7.53427
H         10.13169        3.00380       -6.67818
H          8.82102        4.13164       -8.36144
H          8.09610        4.53672       -6.79676
H          7.02229        2.89350       -8.79342
H          6.78317        1.25700       -5.73214
