65

Br         5.58134        2.54830        1.56432
C          4.73656        0.89664        1.20664
C          3.69407        0.74045        0.38026
C          3.03728        1.79581       -0.46213
C          1.48886        2.02438       -0.32783
C          1.01495        2.09043        1.13073
C          1.70789        3.07313        2.09380
C          1.37738        4.57081        1.95727
C         -0.11433        4.95063        2.02676
C         -0.89743        4.35729        3.20952
C         -0.33089        4.73983        4.57505
O         -1.07942        4.11484        5.64635
C         -0.75571        2.81618        5.91621
O          0.09275        2.18963        5.30091
C         -1.57335        2.30705        7.04317
C         -1.41518        1.06085        7.50281
S          1.24402        3.71011       -1.17755
C          0.89720        2.94726       -2.64345
N          0.75804        1.65209       -2.60882
C          0.71907        1.01201       -1.27702
C         -0.75160        0.45304       -1.03828
C         -1.80198        1.59891       -1.13764
C         -3.29837        1.41530       -0.75073
C         -4.05652        0.31965       -1.51483
C         -3.57368        1.32176        0.75830
C         -0.96916       -0.64191       -2.12034
O         -0.94288       -0.10111       -3.46359
C         -0.79942       -0.34250        0.28607
Br         3.14415       -1.09008        0.14785
H          5.20663        0.06576        1.72770
H          3.26917        1.59708       -1.52223
H          3.54716        2.73653       -0.20770
H          1.16765        1.07968        1.53720
H         -0.06798        2.26808        1.14550
H          2.79893        2.94727        2.04867
H          1.42048        2.74443        3.10438
H          1.80522        4.99428        1.03244
H          1.92393        5.08793        2.76140
H         -0.62485        4.64695        1.09688
H         -0.18763        6.04976        2.04893
H         -0.91390        3.25928        3.14424
H         -1.94336        4.69485        3.15475
H         -0.42674        5.81769        4.76199
H          0.72380        4.44771        4.67353
H         -2.29670        2.99892        7.47627
H         -0.67757        0.39477        7.05225
H         -2.00775        0.68210        8.33471
H          0.77478        3.50489       -3.57394
H          0.35385        1.09609       -3.38763
H          1.35951        0.11772       -1.32795
H         -1.79805        1.95676       -2.17896
H         -1.43540        2.44036       -0.52887
H         -3.74086        2.37295       -1.07733
H         -3.82136       -0.68791       -1.14045
H         -3.84976        0.34979       -2.59405
H         -5.13885        0.45427       -1.38309
H         -3.29992        0.34633        1.18079
H         -4.64623        1.46346        0.94980
H         -3.03636        2.10002        1.32019
H         -1.94105       -1.11874       -1.94310
H         -0.18302       -1.41043       -2.01366
H         -1.13782       -0.81357       -4.09228
H         -0.89876        0.29965        1.16333
H          0.09844       -0.96306        0.41186
H         -1.66671       -1.01556        0.28017
