50

C          1.00869       -1.73500        3.26194
C          2.51928       -1.52640        3.12714
C          2.87291       -0.06335        2.92144
O          4.30587        0.05788        2.82427
C          4.74841        1.37041        2.59319
C          6.26257        1.30245        2.40513
S          6.63783        0.18694        0.97279
C          7.19400        1.50564        0.01663
N          7.20771        2.66357        0.63764
C          6.91970        2.66461        2.07710
C          8.21290        2.96712        2.86084
C          8.88976        4.25800        2.36019
O          8.57711        4.73358        1.24380
N          9.81716        4.83953        3.14893
C         10.41636        6.12950        2.74294
C         11.85789        6.01814        2.23355
C         12.01703        5.24967        0.91735
C         13.47112        5.19386        0.44380
C         10.22273        4.32421        4.45544
C          7.59781        1.28128       -1.36479
C          7.96887        2.25702       -2.20970
H          0.77642       -2.79752        3.40591
H          0.47196       -1.39753        2.36369
H          0.60105       -1.18685        4.12317
H          2.90983       -2.10797        2.27800
H          3.03585       -1.89123        4.02784
H          2.51120        0.55234        3.76687
H          2.41064        0.32869        1.99511
H          4.53018        2.03697        3.45462
H          4.26781        1.81457        1.69697
H          6.71416        0.83158        3.28878
H          7.71797        3.54062        0.36641
H          6.19658        3.47396        2.26955
H          8.91661        2.12392        2.75867
H          7.95831        3.04415        3.92707
H         10.37614        6.78683        3.62529
H          9.76789        6.55595        1.96867
H         12.50235        5.56907        3.00880
H         12.22781        7.04849        2.10459
H         11.38805        5.72285        0.14624
H         11.63053        4.22389        1.03925
H         13.87352        6.20327        0.27604
H         13.56401        4.63918       -0.49932
H         14.11560        4.69985        1.18565
H         10.10118        3.23842        4.51778
H          9.65482        4.80320        5.26903
H         11.28696        4.54338        4.60560
H          7.57286        0.24203       -1.69685
H          7.99070        3.31102       -1.92676
H          8.25942        2.02107       -3.23282
