97

C         -1.24958       -5.19375      -11.13246
C          0.25619       -5.41615      -11.29572
C          1.10870       -4.30778      -10.66721
C          2.61571       -4.51929      -10.84457
C          3.47528       -3.40090      -10.24586
C          4.97890       -3.60971      -10.45503
C          5.84703       -2.48138       -9.88870
C          7.34788       -2.68695      -10.12135
C          8.21640       -1.55434       -9.56466
C          9.71932       -1.75502       -9.78982
C         10.57366       -0.62324       -9.21017
C         12.08376       -0.81904       -9.38647
C         12.90455        0.32124       -8.76849
C         14.42527        0.11290       -8.76830
C         15.06391        0.05712      -10.16210
C         16.59288       -0.04867      -10.09653
C         17.29051       -0.06304      -11.46483
C         16.86029       -1.27535      -12.34500
N         18.15134       -1.77008      -12.88699
C         19.18553       -1.15787      -12.43361
C         18.86495       -0.10548      -11.44054
C         19.55875       -0.36238      -10.07017
C         21.07368       -0.53095      -10.16943
O         21.57205        0.49734      -11.01842
C         22.95859        0.41882      -11.29450
C         23.18330        0.98386      -12.69395
F         22.76314        2.26270      -12.80395
F         24.49476        0.93704      -13.01109
F         22.50150        0.25316      -13.62730
C         15.86621       -0.92734      -13.47134
C         15.20904       -2.13684      -14.14622
O         16.28524       -3.03644      -14.51940
C         16.33645       -3.48416      -15.80869
O         15.51883       -3.22823      -16.65946
C         17.55066       -4.36442      -16.05605
S         18.85550       -4.41398      -14.78128
C         14.23065       -2.85048      -13.19774
O         13.85799       -4.15286      -13.67349
C         14.56326       -5.20092      -13.14134
O         15.47237       -5.07361      -12.34693
C         14.05321       -6.51279      -13.68817
S         14.95407       -6.98992      -15.21244
H         -1.82997       -6.00254      -11.59754
H         -1.56638       -4.24824      -11.59764
H         -1.53465       -5.14928      -10.07065
H          0.50222       -5.49568      -12.36843
H          0.53655       -6.38593      -10.85045
H          0.87240       -4.23138       -9.59102
H          0.82230       -3.33588      -11.10698
H          2.84357       -4.61333      -11.92130
H          2.90462       -5.48417      -10.39141
H          3.26374       -3.31319       -9.16563
H          3.17661       -2.43494      -10.69004
H          5.18214       -3.71614      -11.53555
H          5.28126       -4.56804       -9.99678
H          5.65614       -2.38031       -8.80585
H          5.53685       -1.52202      -10.33912
H          7.53621       -2.79364      -11.20462
H          7.65958       -3.64352       -9.66563
H          8.02502       -1.44766       -8.48254
H          7.90460       -0.59786      -10.01979
H          9.91740       -1.85008      -10.87291
H         10.03016       -2.71459       -9.33974
H         10.35182       -0.51837       -8.13400
H         10.27436        0.33403       -9.67163
H         12.31009       -0.91652      -10.46382
H         12.38438       -1.77663       -8.92424
H         12.57868        0.46093       -7.72526
H         12.66520        1.26749       -9.28437
H         14.66688       -0.81716       -8.22439
H         14.89637        0.92991       -8.19709
H         14.77913        0.95959      -10.73200
H         14.64608       -0.80154      -10.71321
H         16.86235       -0.95777       -9.53259
H         16.97662        0.80184       -9.51138
H         17.00470        0.85481      -12.00273
H         16.45916       -2.09466      -11.72577
H         18.21536       -2.57568      -13.55923
H         20.18420       -1.43910      -12.77750
H         19.29292        0.83891      -11.81611
H         19.14343       -1.25458       -9.58059
H         19.32910        0.49787       -9.42720
H         21.34438       -1.52407      -10.58158
H         21.51790       -0.46674       -9.16007
H         23.32161       -0.62334      -11.29822
H         23.55642        1.00234      -10.57402
H         16.37705       -0.31294      -14.22827
H         15.07937       -0.29302      -13.03820
H         14.68858       -1.83906      -15.06729
H         18.03006       -4.02663      -16.98395
H         17.18796       -5.38703      -16.22886
H         18.16827       -5.17454      -13.89265
H         13.30101       -2.26795      -13.14720
H         14.64915       -2.95809      -12.18844
H         12.97705       -6.48085      -13.88912
H         14.27299       -7.30222      -12.96101
H         14.31496       -6.12715      -16.03926
