65

C         -0.38602        1.71318       -0.91307
C         -1.32683        0.82695       -1.68693
C         -1.55605        1.00672       -3.05287
C         -2.43119        0.16694       -3.74386
C         -3.11659       -0.89013       -3.13201
C         -2.86606       -1.05785       -1.75536
C         -2.00365       -0.22311       -1.04632
O         -3.55629       -2.10009       -1.10599
C         -3.02523       -2.55086        0.11484
P         -3.59178       -4.28496        0.33253
C         -2.70982       -5.02015        1.74767
C         -2.88034       -6.54477        1.93035
C         -2.52992       -7.48309        0.75977
C         -1.06372       -7.56405        0.29831
S         -0.63834       -6.29909       -0.93770
O         -1.61043       -6.34965       -2.01099
O         -0.36723       -5.02991       -0.28518
Cl         1.14889       -7.02124       -1.64584
C         -5.38937       -4.49352        0.44564
C         -6.10699       -4.05442       -0.84315
C         -7.57712       -4.50508       -0.91271
C         -8.18974       -4.06063       -2.22280
C         -7.94891       -4.78405       -3.40074
C         -8.45108       -4.34052       -4.62534
C         -9.20356       -3.16396       -4.68779
C         -9.45298       -2.43823       -3.52072
C         -8.94728       -2.88430       -2.29720
C         -4.07374       -1.73354       -3.96505
C         -3.73581       -3.23585       -3.98104
C         -5.54745       -1.45656       -3.60853
H         -0.08391        2.58513       -1.50543
H          0.52882        1.17006       -0.63092
H         -0.84785        2.07854        0.01518
H         -1.04958        1.81293       -3.58555
H         -2.59429        0.33160       -4.81099
H         -1.85512       -0.35822        0.02639
H         -3.35037       -1.95478        0.98940
H         -1.91988       -2.59543        0.10838
H         -3.18858       -4.93912       -0.85386
H         -3.07455       -4.49655        2.64525
H         -1.65459       -4.74482        1.61147
H         -3.91930       -6.75967        2.22183
H         -2.27055       -6.81926        2.80498
H         -3.17348       -7.30452       -0.11626
H         -2.78724       -8.50045        1.09025
H         -0.87692       -8.51231       -0.22201
H         -0.33323       -7.45347        1.11163
H         -5.74414       -3.94815        1.33471
H         -5.54827       -5.56800        0.64248
H         -5.57690       -4.45637       -1.72015
H         -6.05267       -2.96236       -0.93775
H         -8.14169       -4.08308       -0.06705
H         -7.63142       -5.60246       -0.82058
H         -7.36875       -5.70969       -3.36040
H         -8.26227       -4.91807       -5.53130
H         -9.59963       -2.81832       -5.64296
H        -10.04677       -1.52446       -3.56144
H         -9.14817       -2.31339       -1.38757
H         -3.93188       -1.38091       -4.99965
H         -3.89388       -3.70593       -3.00245
H         -2.68908       -3.40457       -4.26744
H         -4.37569       -3.75684       -4.70673
H         -5.76593       -1.68764       -2.55885
H         -6.22302       -2.06296       -4.22787
H         -5.79305       -0.39864       -3.76997
