39

C          4.78229       -0.57210       -1.68221
C          3.95065        0.69406       -1.67495
O          4.54669        1.70014       -0.76131
C          4.22613        1.64589        0.50963
O          3.40505        0.86400        1.01030
C          5.01628        2.64098        1.37970
N          6.22727        1.96236        1.83680
C          6.03155        0.90447        2.83868
C          7.40290        0.46235        3.36822
C          7.38143       -0.79785        4.24336
C          8.78105       -1.36994        4.48023
O          8.74300       -2.60509        5.16822
O          6.71669       -0.57339        5.50502
C          5.07199        1.30911        3.97154
N          3.78933        1.90791        3.37402
C          4.11773        3.13539        2.52642
C          2.81909        2.15041        4.33751
C          1.98571        2.36238        5.17880
H          4.37711       -1.25674       -2.43995
H          4.74709       -1.08681       -0.71367
H          5.82671       -0.35895       -1.94252
H          2.91561        0.51997       -1.35716
H          3.96319        1.20799       -2.64199
H          5.30834        3.49586        0.75640
H          6.93803        2.63527        2.12495
H          5.58350        0.03886        2.31875
H          7.87532        1.29202        3.92528
H          8.03345        0.27610        2.48481
H          6.77459       -1.57922        3.75638
H          9.39583       -0.61718        5.02127
H          9.27842       -1.56601        3.51890
H          8.19665       -2.49292        5.96451
H          7.29923       -0.02456        6.05926
H          5.49173        2.08623        4.62598
H          4.76957        0.45516        4.58606
H          3.42597        1.23603        2.60269
H          4.62586        3.86549        3.16874
H          3.16240        3.54791        2.17811
H          1.23459        2.54239        5.92221
