24

C          0.65150       -0.30235       -0.37884
C          2.16759       -0.34465       -0.13597
C          2.89073        0.43382       -1.24495
S          4.66658        0.59701       -0.84484
C          5.33121       -1.07431       -1.20935
C          6.84441       -1.15025       -1.05119
C          7.36663       -0.78819        0.34789
N          8.81219       -0.95290        0.38312
Br         5.45535        1.81980       -2.47573
H          0.13763       -0.86960        0.40697
H          0.38567       -0.74936       -1.34614
H          0.26957        0.72697       -0.35644
H          2.51002       -1.38972       -0.11773
H          2.40192        0.09454        0.84624
H          2.54274        1.47614       -1.29933
H          2.80314       -0.02971       -2.23780
H          4.97865       -1.35117       -2.21235
H          4.80656       -1.68837       -0.45634
H          7.35037       -0.53346       -1.80862
H          7.11256       -2.19382       -1.28694
H          6.80659       -1.37624        1.10703
H          7.15258        0.27303        0.55998
H          9.08003       -1.93666        0.42735
H          9.21977       -0.49485        1.19667
