57

C          0.16670        0.19858        2.43957
C         -0.09449       -0.02215        0.96878
C         -0.63213       -1.24910        0.54842
C         -0.95482       -1.49874       -0.78599
C         -0.76591       -0.49839       -1.74015
C         -0.22946        0.72643       -1.34170
C          0.13593        0.97559       -0.00765
C          0.77427        2.31029        0.32948
C          2.31160        2.32902        0.22670
C          2.78939        1.83159       -1.13960
N          4.29540        1.65888       -1.12814
C          4.79197        0.76982        0.02168
C          4.26535        1.44634        1.30629
O          2.84309        1.50182        1.26314
C          4.66869        0.73079        2.59122
C          4.31025        1.51346        3.86069
C          4.66401        0.70900        5.11669
C          4.31230        1.44988        6.40889
S          4.78384        0.44601        7.83308
O          3.91015       -0.70794        7.91168
O          6.21846        0.31078        7.82777
O          4.40180        1.44687        9.05401
C          4.32972       -0.67449       -0.22165
C          5.32496       -1.71968        0.30260
C          4.82437       -3.13650        0.05770
F          3.64908       -3.36565        0.70171
F          4.60764       -3.36482       -1.26753
F          5.71948       -4.04758        0.49163
H         -0.15678       -0.67277        3.02081
H         -0.38876        1.06958        2.81988
H          1.22886        0.37562        2.65124
H         -0.81559       -2.02277        1.29634
H         -1.37506       -2.46283       -1.07346
H         -1.04950       -0.66106       -2.78019
H         -0.11525        1.52325       -2.08245
H          0.52675        2.63577        1.34926
H          0.38869        3.08751       -0.34829
H          2.66956        3.36893        0.38259
H          2.54467        2.53838       -1.94279
H          2.34957        0.85469       -1.37497
H          4.74318        2.58314       -1.04255
H          4.60250        1.25939       -2.02495
H          5.88970        0.84755       -0.01835
H          4.67073        2.48386        1.33020
H          5.75428        0.54028        2.56896
H          4.16738       -0.24979        2.61843
H          3.23504        1.74947        3.85379
H          4.84717        2.47707        3.86629
H          5.74031        0.47605        5.12089
H          4.13113       -0.25492        5.09881
H          3.23434        1.64192        6.50269
H          4.85857        2.39802        6.51189
H          3.63296        1.05846        9.51437
H          4.20413       -0.84743       -1.30348
H          3.33928       -0.82504        0.23187
H          5.49492       -1.62671        1.38246
H          6.30047       -1.62976       -0.19709
