63

N          0.61454       -0.39161       -0.53675
C          2.01655       -0.75469       -0.32333
C          2.86965       -0.31191       -1.51539
C          4.35921       -0.62618       -1.34009
C          5.19202       -0.13332       -2.52895
C          6.74590       -0.25772       -2.41569
C          7.23193        0.82299       -1.41719
C          8.58371        0.63947       -0.72164
O          8.88042        1.89705       -0.13616
C         10.18895        1.98151        0.38833
C         10.40097        3.40492        0.89652
F         10.17391        4.32580       -0.06402
F          9.59222        3.69196        1.94350
F         11.68771        3.53918        1.31436
C          7.16381       -1.66034       -1.93499
N          6.71303       -2.68246       -2.88495
C          6.64474       -2.44411       -4.19871
N          6.23616       -3.42394       -5.03680
N          6.94198       -1.23303       -4.67190
C          7.32823       -0.05235       -3.85155
C          8.84269        0.18687       -4.05139
C          9.33772        1.62578       -3.86138
C         10.83131        1.76718       -4.21897
C         11.40184        3.09805       -3.78481
C         12.28028        3.17248       -2.69535
C         12.76413        4.40300       -2.24434
C         12.37598        5.58091       -2.88514
C         11.51275        5.52021       -3.98313
C         11.03129        4.28833       -4.42925
H          0.07189       -0.51141        0.31806
H          0.18334       -0.98949       -1.24312
H          2.18399       -1.83722       -0.13664
H          2.36234       -0.22778        0.58042
H          2.72333        0.76967       -1.66471
H          2.49526       -0.80123       -2.43267
H          4.47861       -1.71636       -1.21121
H          4.71222       -0.16754       -0.40130
H          4.97539        0.93456       -2.69590
H          4.83383       -0.64655       -3.43534
H          6.47519        0.92281       -0.62710
H          7.24830        1.79629       -1.92801
H          9.39078        0.35417       -1.42196
H          8.53589       -0.14507        0.05958
H         10.94989        1.78528       -0.38860
H         10.34895        1.28984        1.23536
H          6.71123       -1.89189       -0.96392
H          8.25591       -1.73390       -1.81873
H          6.31838       -3.54619       -2.53110
H          6.26069       -4.39293       -4.74462
H          6.15453       -3.25248       -6.03086
H          7.01428       -1.12986       -5.67893
H          6.78563        0.79896       -4.29537
H          9.07820       -0.11002       -5.08820
H          9.42056       -0.51097       -3.42212
H          9.19677        1.97512       -2.83073
H          8.74055        2.30542       -4.49106
H         10.96503        1.62349       -5.30426
H         11.39850        0.95966       -3.72754
H         12.60218        2.25142       -2.20192
H         13.44371        4.44169       -1.39237
H         12.74972        6.54368       -2.53551
H         11.21761        6.43618       -4.49655
H         10.36349        4.25302       -5.29357
