48

C          3.54671       -1.93213        1.72728
C          3.76110       -0.43086        1.91437
N          2.62524        0.37162        1.40805
C          1.64507        0.69951        2.25447
O          1.61455        0.37169        3.46074
C          0.44235        1.54027        1.74886
N         -0.39331        1.74372        2.97529
N         -0.27914        3.12807        3.44597
C         -1.20881        4.03116        2.76003
C         -0.40586        3.16865        4.90658
C         -1.77767        1.12822        2.91640
C         -1.73481       -0.40592        2.91886
C         -3.15081       -0.94241        2.94849
C         -3.86675       -1.12623        1.75699
C         -5.19089       -1.56831        1.78619
C         -5.81281       -1.83073        3.00983
C         -5.10539       -1.65543        4.20213
C         -3.78136       -1.21212        4.17133
C          2.65404        0.78517       -0.00538
C          3.46444        2.06015       -0.24362
H          4.42738       -2.47767        2.09068
H          3.40448       -2.19705        0.67059
H          2.67450       -2.27826        2.29609
H          4.65868       -0.08992        1.38039
H          3.88723       -0.18550        2.97531
H         -0.13635        1.01343        0.98088
H          0.75382        2.51977        1.37223
H          0.22238        1.16719        3.65761
H         -1.09234        3.94715        1.67165
H         -0.92691        5.05171        3.04541
H         -2.26959        3.87721        3.02724
H          0.32544        2.48507        5.35735
H         -1.41941        2.93301        5.28160
H         -0.15365        4.18735        5.22423
H         -2.29156        1.51436        2.02655
H         -2.31409        1.48118        3.80651
H         -1.17210       -0.75792        3.79662
H         -1.21057       -0.78385        2.02760
H         -3.38243       -0.93351        0.79622
H         -5.73539       -1.71447        0.85294
H         -6.84522       -2.18000        3.03348
H         -5.58302       -1.87100        5.15831
H         -3.22981       -1.08772        5.10633
H          1.62378        0.90230       -0.36799
H          3.07747       -0.05427       -0.57467
H          3.03723        2.91840        0.29267
H          3.47800        2.29869       -1.31511
H          4.50500        1.94166        0.08502
