92

C          6.64317       -0.13136       -3.74083
C          6.32259        0.20449       -2.28243
C          7.08734       -0.66502       -1.27702
C          6.75778       -0.33626        0.18281
C          7.42666       -1.28070        1.18995
C          7.04599       -0.94864        2.63757
C          7.40191       -2.01966        3.67726
N          8.86748       -2.21790        3.86281
N          9.37504       -3.16070        3.06163
C         10.66708       -3.41963        3.14937
C         11.53729       -2.77344        4.05464
C         10.96837       -1.80107        4.86279
C          9.60200       -1.50206        4.75533
C          8.95252       -0.48394        5.63645
C          8.42348       -1.11024        6.95652
C          7.56259       -0.13042        7.76621
C          6.18610        0.16577        7.15708
C          5.35380        1.14013        7.99928
C          3.96022        1.42101        7.42712
C          3.15260        2.41614        8.26789
C          1.74736        2.69503        7.72381
C          0.96165        3.70572        8.56657
C         -0.44678        3.99631        8.03734
C         -1.21473        5.01939        8.88128
C         -2.61274        5.34310        8.34400
C         -3.36521        6.38191        9.18229
C         -4.75159        6.73567        8.63206
C         -5.48742        7.78473        9.47018
C         12.98920       -3.13158        4.11926
O         13.55065       -2.58470        5.29665
C         14.95928       -2.65386        5.33711
O         15.46913       -1.79066        4.34893
C         16.90832       -1.73751        4.31496
C         17.28499       -0.55864        3.43521
O         16.84176        0.67969        3.97783
H          6.06805        0.49909       -4.43212
H          6.40270       -1.17985       -3.97167
H          7.70993        0.02021       -3.96307
H          5.23981        0.08724       -2.10715
H          6.54606        1.26734       -2.08960
H          8.17296       -0.55369       -1.44574
H          6.85838       -1.72782       -1.47113
H          5.66400       -0.38239        0.32562
H          7.04718        0.70651        0.40094
H          8.52154       -1.24250        1.06158
H          7.13146       -2.31928        0.96473
H          5.95177       -0.83464        2.71050
H          7.46793        0.02557        2.93411
H          7.02967       -3.00188        3.36405
H          6.97554       -1.77973        4.65738
H         11.01491       -4.19943        2.46860
H         11.57688       -1.26579        5.59033
H          8.14025        0.02686        5.10531
H          9.70253        0.28190        5.87896
H          9.28668       -1.44488        7.55130
H          7.83699       -2.01711        6.73213
H          8.11787        0.81115        7.91580
H          7.42281       -0.55861        8.77132
H          5.63115       -0.78242        7.03972
H          6.29360        0.58654        6.14032
H          5.90546        2.09059        8.10211
H          5.25350        0.73778        9.02201
H          3.40066        0.47260        7.34400
H          4.05670        1.80784        6.39679
H          3.71028        3.36654        8.33883
H          3.07307        2.03685        9.30175
H          1.18229        1.74796        7.66636
H          1.82270        3.06535        6.68596
H          1.53020        4.65093        8.62174
H          0.89176        3.33685        9.60507
H         -1.02200        3.05481        7.98964
H         -0.37800        4.36048        6.99691
H         -0.62633        5.95190        8.94383
H         -1.29852        4.64773        9.91779
H         -3.20883        4.41495        8.29001
H         -2.52769        5.70681        7.30459
H         -2.75775        7.30189        9.25188
H         -3.46789        6.01180       10.21789
H         -5.36226        5.81888        8.56928
H         -4.64730        7.09911        7.59551
H         -5.64018        7.43659       10.50272
H         -6.47522        8.01797        9.04944
H         -4.91825        8.72515        9.52139
H         13.49415       -2.73107        3.21756
H         13.10364       -4.23412        4.09324
H         15.30750       -3.69543        5.16693
H         15.24383       -2.32519        6.35128
H         17.31938       -2.68032        3.90802
H         17.29867       -1.58669        5.33758
H         16.88577       -0.71760        2.41575
H         18.37976       -0.49691        3.36183
H         15.88256        0.60584        4.10879
