89

C          0.71906        1.07915       -1.53843
C          2.24203        0.99213       -1.41424
C          2.82618        1.96726       -0.38625
C          4.34963        1.88272       -0.25517
C          4.93617        2.85420        0.77358
C          6.45986        2.76665        0.90074
C          7.04746        3.73583        1.93060
C          8.57130        3.65166        2.05670
C          9.15391        4.62389        3.08654
C         10.67891        4.55442        3.20651
C         11.25457        5.52730        4.23986
C         12.78046        5.46918        4.35579
C         13.34870        6.42364        5.41061
C         14.87560        6.37397        5.51928
C         15.44025        7.30268        6.59924
C         16.96829        7.26112        6.69272
C         17.53399        8.17244        7.78864
C         19.06662        8.11467        7.87563
C         19.68567        9.09901        8.86889
N         19.09238        8.81169       10.24885
C         19.56863        9.71487       11.38402
C         21.09720        9.63772       11.37327
N         21.59545       10.01078       10.05753
C         21.21776        9.06051        9.00958
C         21.90472        9.40866        7.68023
C         23.42584        9.39138        7.75372
F         23.86374        8.14695        8.23260
C         18.99335       11.12541       11.23463
C         17.47463       11.22476       10.98048
C         16.63765       10.53564       12.06999
C         17.07592       12.69938       10.82986
H          0.33382        0.36707       -2.28152
H          0.39998        2.08587       -1.84736
H          0.22647        0.85721       -0.57989
H          2.70412        1.18350       -2.39775
H          2.53178       -0.03704       -1.14162
H          2.36330        1.77775        0.59864
H          2.53915        2.99847       -0.65901
H          4.81142        2.07329       -1.24019
H          4.63522        0.85066        0.01538
H          4.47634        2.66343        1.75948
H          4.65154        3.88687        0.50443
H          6.91972        2.95905       -0.08480
H          6.74468        1.73362        1.16823
H          6.58882        3.54260        2.91656
H          6.76124        4.76866        1.66376
H          9.03040        3.84567        1.07117
H          8.85969        2.61974        2.32450
H          8.70089        4.42374        4.07372
H          8.85639        5.65436        2.82311
H         11.13250        4.75778        2.22041
H         10.97867        3.52436        3.46876
H         10.80550        5.31764        5.22684
H         10.94763        6.55643        3.98235
H         13.23089        5.69836        3.37406
H         13.08962        4.43650        4.59540
H         12.90423        6.18598        6.39325
H         13.03268        7.45583        5.17804
H         15.32066        6.63551        4.54353
H         15.19384        5.33773        5.72874
H         15.00529        7.02959        7.57722
H         15.11375        8.33843        6.40001
H         17.40603        7.55347        5.72313
H         17.29888        6.22435        6.87597
H         17.06484        7.87219        8.74596
H         17.21585        9.21303        7.60095
H         19.47832        8.34647        6.88332
H         19.40227        7.08804        8.10684
H         19.37585       10.12803        8.63370
H         19.31636        7.83432       10.48748
H         18.06646        8.86881       10.17403
H         19.18307        9.23840       12.29732
H         21.40891        8.61521       11.68362
H         21.48781       10.33565       12.12566
H         22.60564       10.13608       10.08523
H         21.50607        8.01727        9.27928
H         21.58790       10.40974        7.34457
H         21.59592        8.68632        6.91259
H         23.83636       10.16499        8.42319
H         23.86039        9.54215        6.75507
H         19.54495       11.65840       10.44672
H         19.23091       11.64777       12.17602
H         17.24358       10.74223       10.00794
H         16.84419       10.97468       13.05762
H         16.82309        9.45215       12.15187
H         15.56514       10.65812       11.87116
H         17.25628       13.25067       11.76470
H         16.00993       12.79592       10.58622
H         17.65020       13.19310       10.03355
