69

S          1.91229        1.13097       -1.50569
C          2.64711        0.06410       -0.19787
C          3.18072       -1.22267       -0.79384
O          2.60432       -2.28831       -0.75809
O          4.36454       -0.99608       -1.43292
C          4.96326       -2.10572       -2.16182
C          4.60872       -1.99459       -3.65875
C          3.18241       -2.30481       -3.95775
C          2.58877       -3.46638       -4.37174
N          1.21806       -3.25521       -4.41043
C          0.95450       -1.98575       -4.03522
N          2.14297       -1.40752       -3.77396
C         -0.36094       -1.31309       -3.87970
C         -1.02690       -1.55133       -2.49335
C         -2.26508       -0.69827       -2.34887
C         -2.17708        0.60494       -1.83785
C         -3.30969        1.41763       -1.76060
C         -4.54687        0.93642       -2.19694
C         -4.64656       -0.36161       -2.70441
C         -3.51202       -1.17241       -2.77987
C          0.22683       -4.30366       -4.70433
C          0.06527       -5.27480       -3.53033
C         -0.97006       -6.36222       -3.82526
C         -1.11683       -7.35167       -2.65518
N         -2.05424       -8.41936       -2.93960
C         -1.74875       -9.58832       -3.60831
C         -2.92297      -10.28785       -3.81018
C         -3.97967       -9.51359       -3.25391
C         -3.41815       -8.36502       -2.72951
C          6.46543       -1.99858       -1.91190
O          7.07295       -3.03377       -2.70440
C          8.38195       -3.32081       -2.40136
O          9.01378       -2.72615       -1.55920
C          8.88467       -4.47516       -3.23543
S          8.36743       -6.07838       -2.51177
H          3.05672        1.75872       -1.86495
H          1.83169       -0.17753        0.49170
H          3.42127        0.63246        0.32911
H          4.57068       -3.04683       -1.75182
H          5.24524       -2.70793       -4.19821
H          4.87414       -0.98846       -4.01947
H          3.02730       -4.42047       -4.63819
H          2.21358       -0.47125       -3.34613
H         -1.04534       -1.62915       -4.67994
H         -0.20510       -0.23389       -4.01869
H         -0.29790       -1.31915       -1.70297
H         -1.27990       -2.61633       -2.38741
H         -1.21456        0.98914       -1.49178
H         -3.22641        2.42704       -1.35629
H         -5.43224        1.56967       -2.13617
H         -5.61094       -0.74552       -3.03832
H         -3.59995       -2.18932       -3.17071
H          0.56014       -4.82573       -5.61223
H         -0.72215       -3.80682       -4.94324
H         -0.21841       -4.70492       -2.63065
H          1.04097       -5.73628       -3.30636
H         -0.68453       -6.92521       -4.72816
H         -1.95322       -5.91156       -4.03603
H         -1.45463       -6.82433       -1.74988
H         -0.14084       -7.80213       -2.41674
H         -0.72194       -9.82833       -3.86644
H         -3.00819      -11.25857       -4.28747
H         -5.03180       -9.77685       -3.22130
H         -3.86664       -7.52503       -2.20826
H          6.69430       -2.14459       -0.84733
H          6.85321       -1.01330       -2.21562
H          9.97538       -4.42140       -3.31039
H          8.44349       -4.45724       -4.23941
H          9.13342       -5.98419       -1.39893
