56

C          1.20685       -0.02131       -0.42397
C          2.53848       -0.01803        0.35003
C          2.65854        1.04495        1.39379
C          2.47167        0.94979        2.74503
N          2.69841        2.20332        3.27568
C          3.02356        3.07931        2.30800
N          3.01100        2.37960        1.14856
C          3.16205        2.97485       -0.16963
C          1.78903        3.50310       -0.68672
O          0.81377        3.39540        0.04083
C          1.74905        4.11751       -2.02943
C          2.87473        4.17638       -2.87435
C          2.77494        4.77040       -4.13074
C          1.55610        5.31199       -4.55201
C          0.43264        5.25960       -3.71731
C          0.52532        4.66527       -2.46402
C          3.37077        4.50982        2.53225
C          2.31018        5.54086        2.08369
C          2.62880        6.93655        2.62919
N          1.77062        7.92917        2.00416
C          2.09010        9.30968        2.41232
C          1.17488       10.31715        1.76199
C          1.63518       11.19379        0.77335
C          0.79738       12.14543        0.18744
C         -0.53686       12.22709        0.59081
C         -1.02544       11.36056        1.56969
C         -0.17505       10.41424        2.14819
O         -0.61573        9.53225        3.11404
H          1.16519       -0.90074       -1.07855
H          1.08003        0.86972       -1.04934
H          0.35492       -0.06541        0.26637
H          3.38922        0.04929       -0.34755
H          2.66166       -0.97965        0.86851
H          2.20865        0.09785        3.35940
H          2.65470        2.44446        4.26113
H          3.57002        2.21735       -0.85049
H          3.89181        3.79366       -0.11550
H          3.83470        3.75901       -2.56686
H          3.64656        4.81173       -4.78383
H          1.48061        5.77753       -5.53529
H         -0.51468        5.68545       -4.04911
H         -0.33576        4.61476       -1.79771
H          4.33228        4.72356        2.03643
H          3.56090        4.62710        3.61090
H          1.31283        5.21374        2.41562
H          2.26742        5.60632        0.98844
H          3.67404        7.19680        2.38370
H          2.56903        6.92291        3.74263
H          0.79328        7.74571        2.24394
H          3.12630        9.51884        2.10435
H          2.04910        9.43364        3.51537
H          2.68095       11.12926        0.46548
H          1.18400       12.82171       -0.57455
H         -1.20254       12.96809        0.14730
H         -2.06938       11.41879        1.88890
H         -1.53678        9.74635        3.33364
