30

C          0.81330        0.38308        0.84821
C          2.24193        0.82932        1.16502
C          3.23968       -0.33369        1.10441
C          4.70131        0.04986        1.33219
S          4.97754        0.85307        2.96033
C          4.75133       -0.52085        4.13973
C          4.90506       -0.08565        5.61604
C          3.77348        0.82520        6.10381
O          4.03448        1.35467        7.38285
O          5.01950       -1.25899        6.41153
C          6.76885        1.08309        2.95877
H          0.11814        1.23008        0.89763
H          0.46321       -0.37789        1.56039
H          0.74572       -0.04667       -0.16084
H          2.26435        1.29607        2.16509
H          2.55602        1.61359        0.45705
H          3.21087       -0.79396        0.10293
H          2.94299       -1.13593        1.79918
H          5.03318        0.81887        0.61733
H          5.38572       -0.80889        1.27949
H          5.47719       -1.30793        3.89222
H          3.73277       -0.89132        3.94531
H          5.86320        0.43843        5.76042
H          2.81929        0.25504        6.07139
H          3.65630        1.69207        5.43340
H          4.16562        0.62054        8.00642
H          4.15182       -1.69860        6.46405
H          6.99413        1.82293        2.18115
H          7.27977        0.13343        2.76143
H          7.05342        1.48963        3.93601
