70

C          0.57587       -0.85399       -0.14871
C          2.00561       -0.36986        0.10689
C          2.81950       -1.32577        0.98649
C          4.25017       -0.84881        1.25826
C          5.05863       -1.82600        2.11743
C          6.48949       -1.35750        2.40637
C          7.27163       -2.36411        3.26092
C          8.68514       -1.89869        3.54555
O          9.32620       -2.93193        4.38083
C         10.62978       -2.80016        4.60815
O         11.35424       -1.92002        4.18005
C         11.12707       -3.92565        5.53405
C         12.54911       -4.28802        5.23095
C         12.94241       -5.56074        4.85188
C         14.29179       -5.80809        4.51613
N         15.21268       -4.84259        4.54777
N         14.81371       -3.62897        4.93709
C         13.56049       -3.30965        5.28060
C         15.90883       -2.63923        5.01514
C         16.79395       -2.90823        6.23930
O         17.79402       -1.92622        6.20041
C         18.78527       -2.08309        7.23452
C         19.82364       -0.99384        7.06612
C         14.76990       -7.18100        4.11779
C         14.28322       -8.25007        5.07925
C         13.29947       -9.15443        4.65447
C         12.80479      -10.13724        5.51233
C         13.29821      -10.21896        6.81526
C         14.28292       -9.32685        7.24252
C         14.79276       -8.33178        6.39651
C         15.86638       -7.39930        6.90280
H          0.02181       -0.15331       -0.78791
H          0.01523       -0.95894        0.79210
H          0.56887       -1.83483       -0.64727
H          1.97942        0.62618        0.58045
H          2.52651       -0.23220       -0.85583
H          2.85134       -2.32083        0.50820
H          2.29535       -1.47121        1.94772
H          4.21941        0.13692        1.75444
H          4.77142       -0.68834        0.29816
H          5.09352       -2.80896        1.61597
H          4.53253       -1.99329        3.07343
H          6.45944       -0.38039        2.91824
H          7.02000       -1.18755        1.45371
H          7.31063       -3.33806        2.74705
H          6.74734       -2.52975        4.21559
H          8.71383       -0.95337        4.10712
H          9.28717       -1.77791        2.63418
H         10.46957       -4.79893        5.46091
H         11.04041       -3.54089        6.56439
H         12.22603       -6.38286        4.80701
H         13.37856       -2.27867        5.57302
H         15.46420       -1.63864        5.06327
H         16.49744       -2.73437        4.09517
H         17.21322       -3.93195        6.17371
H         16.18857       -2.84758        7.16891
H         19.24090       -3.08732        7.14647
H         18.29369       -2.02007        8.22356
H         20.30522       -1.06106        6.08204
H         20.60042       -1.09637        7.83558
H         19.37043        0.00085        7.16697
H         15.86542       -7.14973        4.03986
H         14.38544       -7.39895        3.10862
H         12.92840       -9.09629        3.62863
H         12.04764      -10.83851        5.16110
H         12.92612      -10.98387        7.49718
H         14.67601       -9.40674        8.25786
H         16.25091       -7.74331        7.87016
H         15.49084       -6.37360        7.05152
H         16.71825       -7.33112        6.21029
