54

C          0.71975        0.59089       -2.04356
C          0.92043        0.12200       -0.60144
C          1.76737        1.09058        0.23309
C          1.93415        0.67523        1.70157
N          2.57613       -0.64686        1.85922
C          1.78573       -1.70533        2.16513
O          0.58382       -1.60910        2.44040
C          2.40719       -3.10871        2.05942
N          2.17519       -3.97350        3.29379
N          2.85238       -3.30291        4.38373
C          2.64282       -5.41869        3.00009
C          1.39265       -6.18398        2.52680
C          0.23653       -5.15446        2.58529
C          0.70315       -4.17018        3.64643
C         -1.16057       -5.74166        2.80440
C         -2.30678       -4.70943        2.73782
C         -2.24281       -3.70100        1.57316
C         -2.26193       -4.36557        0.17988
S         -1.12679       -3.50374       -0.93360
O         -1.59331       -2.16509       -1.19670
O          0.23933       -3.72939       -0.48495
Cl        -1.36368       -4.61655       -2.66922
C          3.99587       -0.73326        1.51321
H          0.11044       -0.12817       -2.60579
H          1.67942        0.70426       -2.56932
H          0.20615        1.56250       -2.08027
H          1.39120       -0.87584       -0.61032
H         -0.05800       -0.01817       -0.11635
H          1.29816        2.08766        0.23792
H          2.75523        1.23117       -0.23894
H          0.95955        0.61198        2.19790
H          2.55063        1.40548        2.24685
H          3.49172       -3.11791        1.90834
H          1.93506       -3.60666        1.20199
H          3.86064       -3.38391        4.21869
H          2.63612       -3.81786        5.24270
H          3.03687       -5.80076        3.94925
H          3.46172       -5.36808        2.27344
H          1.19897       -7.02824        3.20234
H          1.51932       -6.58796        1.51561
H          0.21906       -4.61778        1.62656
H          0.69768       -4.61997        4.65248
H          0.22228       -3.18827        3.64379
H         -1.20715       -6.26738        3.77221
H         -1.31084       -6.52270        2.04176
H         -2.33110       -4.12305        3.66962
H         -3.26084       -5.25701        2.70834
H         -1.35071       -3.06565        1.68309
H         -3.09536       -3.01399        1.64424
H         -3.24475       -4.33284       -0.30597
H         -1.90501       -5.40423        0.18106
H          4.41922        0.27574        1.56487
H          4.16106       -1.11400        0.49360
H          4.55170       -1.34833        2.23207
