57

C          0.95525        0.01657        0.08952
C          2.46195       -0.11516        0.14506
O          3.02770        1.21010        0.24140
C          4.41844        1.18807        0.33373
C          4.91930        2.59240        0.48105
N          4.20196        3.67345        0.67007
N          5.11030        4.70029        0.74832
C          6.37275        4.26764        0.61276
N          6.25340        2.92653        0.44122
C          7.67635        4.99319        0.62779
C          8.88229        4.10853        0.28293
C         10.16453        4.94593        0.30017
S         11.54239        3.87766       -0.19619
C         12.96340        4.90804        0.21747
S         12.79576        6.40078        0.93089
N         14.13931        4.32951       -0.12222
C         14.29616        2.98382       -0.68325
C         15.11561        2.12205        0.28377
O         16.37394        2.71920        0.56682
C         16.21315        4.02246        1.13033
C         15.43292        4.94766        0.19608
C          4.53536        6.06039        0.97284
C          5.54819        7.17031        0.97594
C          6.14913        7.57207        2.17773
C          7.13631        8.55979        2.17552
C          7.52284        9.15810        0.97229
C          6.90457        8.78491       -0.22589
C          5.91725        7.79709       -0.22394
H          0.49867       -0.97940        0.01662
H          0.64413        0.60120       -0.78574
H          0.57055        0.50604        0.99337
H          2.85654       -0.61199       -0.76113
H          2.78096       -0.70772        1.02310
H          4.89600        0.73548       -0.56392
H          4.77062        0.59704        1.20881
H          7.04087        2.29858        0.29887
H          7.80876        5.45426        1.61944
H          7.61278        5.83946       -0.07176
H          8.74642        3.66015       -0.71619
H          8.98593        3.28466        1.00914
H         10.38488        5.34901        1.29884
H         10.09560        5.79638       -0.39288
H         14.82107        3.06861       -1.64910
H         13.31825        2.52374       -0.86880
H         15.32824        1.14283       -0.16607
H         14.53908        1.96902        1.21774
H         17.22528        4.41333        1.29643
H         15.69235        3.95484        2.10500
H         15.98698        5.09395       -0.74537
H         15.24383        5.92202        0.66119
H          3.99753        5.99462        1.92827
H          3.78955        6.18631        0.17657
H          5.84440        7.10877        3.11885
H          7.59980        8.86801        3.11301
H          8.29278        9.92989        0.97064
H          7.18674        9.26960       -1.16077
H          5.43182        7.51037       -1.15958
