77

C          0.69879       -0.41111       -0.29543
C          2.21415       -0.19752       -0.24990
C          2.96118       -1.01687       -1.31110
C          4.46639       -0.82244       -1.24663
O          5.07520       -1.61464       -2.28182
C          6.49161       -1.58717       -2.23052
C          7.01144       -2.56963       -3.25474
C          6.91447       -3.92457       -2.96198
C          6.29777       -4.50267       -1.71409
C          6.14400       -6.02765       -1.68139
C          5.43180       -6.52181       -0.41550
C          5.27256       -8.04496       -0.37715
C          4.54923       -8.55397        0.87503
C          4.40164      -10.07716        0.90453
N          7.39431       -4.81327       -3.88766
C          7.96454       -4.47911       -5.05199
C          8.07730       -3.13940       -5.42462
C          7.55197       -2.14759       -4.50944
C          7.58306       -0.79117       -4.91877
C          8.11979       -0.45515       -6.14302
C          8.66839       -1.42914       -7.01161
C          8.66685       -2.77090       -6.68542
C          9.24211       -3.83500       -7.59138
C          9.91240       -3.35072       -8.87974
C         10.49205       -4.54386       -9.64578
S         11.02069       -4.15037      -11.32966
C          9.46847       -4.25478      -12.23347
S          8.02199       -4.66634      -11.50405
N          9.60932       -3.97966      -13.55198
C         10.87425       -3.64027      -14.21449
C         10.70145       -2.35989      -15.03737
O          9.63575       -2.47627      -15.97059
C          8.40767       -2.74916      -15.29648
C          8.47982       -4.04253      -14.48751
H          0.18950        0.18841        0.47029
H          0.43742       -1.46506       -0.11979
H          0.28334       -0.12501       -1.27265
H          2.59292       -0.46098        0.75177
H          2.43961        0.87273       -0.38873
H          2.60884       -0.73976       -2.31759
H          2.73613       -2.08859       -1.18327
H          4.86402       -1.13841       -0.26202
H          4.73812        0.24128       -1.38903
H          6.85398       -1.88074       -1.22461
H          6.88234       -0.57128       -2.41138
H          5.31448       -4.02314       -1.58772
H          6.89853       -4.17412       -0.84786
H          7.13320       -6.52061       -1.73307
H          5.56222       -6.36841       -2.55770
H          4.43982       -6.04354       -0.35263
H          5.99218       -6.18455        0.47286
H          6.26824       -8.51881       -0.43914
H          4.72190       -8.37761       -1.27485
H          3.55298       -8.08438        0.93390
H          5.09632       -8.21770        1.77164
H          3.82471      -10.44078        0.04146
H          3.88302      -10.41029        1.81315
H          5.38213      -10.57537        0.88136
H          7.29989       -5.80359       -3.65635
H          8.30509       -5.30469       -5.67291
H          7.16861       -0.01475       -4.27979
H          8.12713        0.58980       -6.45547
H          9.09196       -1.10395       -7.96082
H          8.43517       -4.53237       -7.88201
H          9.96750       -4.43533       -7.01314
H         10.71209       -2.62600       -8.66340
H          9.16785       -2.85556       -9.51952
H          9.75033       -5.35227       -9.73274
H         11.39922       -4.93810       -9.16288
H         11.16710       -4.47626      -14.87199
H         11.66778       -3.49460      -13.47222
H         11.61101       -2.16303      -15.62039
H         10.52323       -1.50513      -14.35498
H          7.63821       -2.83391      -16.07482
H          8.14598       -1.90502      -14.62876
H          8.63109       -4.90287      -15.16119
H          7.56449       -4.20300      -13.90640
