100

O          1.48986        1.03526        0.79026
C          2.90091        0.89982        0.62576
C          3.29976        0.78817       -0.87631
C          2.58875       -0.50087       -1.53037
C          2.24591       -1.60094       -0.48124
C          3.43004       -2.45587       -0.01524
C          4.16700       -3.08889       -1.18646
N          4.42279       -2.05746       -2.25884
C          3.21988       -1.20840       -2.79010
C          2.26962       -2.14589       -3.60162
C          1.28132       -3.19562       -3.06147
C          0.68092       -3.99813       -4.22562
C         -0.35695       -5.03229       -3.77862
C         -0.91138       -5.87994       -4.92943
C         -1.92264       -6.93617       -4.47124
C         -2.47064       -7.80697       -5.60727
C         -3.44070       -8.89031       -5.12281
C         -3.99303       -9.77876       -6.24256
C         -4.92749      -10.88253       -5.73332
C         -5.49611      -11.76640       -6.84711
C         -6.41983      -12.86852       -6.30869
N         -6.97963      -13.71645       -7.35107
C         -6.41420      -14.88158       -7.82349
C         -7.18168      -15.33858       -8.87990
C         -8.24707      -14.41261       -9.05921
C         -8.09446      -13.42136       -8.10612
C          3.90780       -0.31721       -3.86184
C          3.01889        0.34440       -4.93068
O          3.80855        1.32074       -5.57188
Si         3.19217        2.43193       -6.69775
C          2.52442        1.49680       -8.18348
C          1.82252        3.43561       -5.88810
C          4.66677        3.49503       -7.12743
C          2.86026        2.19046       -1.51428
C          3.82892        2.86201       -2.50376
C          1.42518        2.23878       -2.06143
C          4.84463        0.69610       -0.78523
H          1.31154        1.35943        1.68578
H          3.27729        0.03024        1.19471
H          3.42036        1.78732        1.02385
H          1.61739       -0.13604       -1.88947
H          1.48857       -2.26538       -0.90655
H          1.75424       -1.13419        0.37668
H          3.07561       -3.26725        0.63632
H          4.13706       -1.87201        0.59271
H          3.58765       -3.89116       -1.65564
H          5.14619       -3.49654       -0.90098
H          4.85119       -2.50971       -3.07649
H          5.11242       -1.37723       -1.90581
H          2.91845       -2.65044       -4.34290
H          1.65855       -1.45743       -4.20088
H          0.46386       -2.70185       -2.51474
H          1.74320       -3.90402       -2.35821
H          1.49510       -4.50871       -4.77004
H          0.22178       -3.30472       -4.95145
H         -1.18928       -4.51722       -3.26856
H          0.09440       -5.69931       -3.02279
H         -0.07435       -6.37933       -5.44841
H         -1.38084       -5.21944       -5.67910
H         -2.76278       -6.43782       -3.95616
H         -1.44858       -7.58560       -3.71400
H         -1.62905       -8.28380       -6.14008
H         -2.97473       -7.16647       -6.35183
H         -4.28163       -8.41376       -4.58870
H         -2.93078       -9.52341       -4.37527
H         -3.15409      -10.23799       -6.79401
H         -4.53047       -9.15382       -6.97684
H         -5.75851      -10.42293       -5.16932
H         -4.38244      -11.51085       -5.00654
H         -4.67674      -12.23635       -7.41500
H         -6.05858      -11.15084       -7.56781
H         -7.25424      -12.42357       -5.74429
H         -5.87190      -13.51572       -5.60708
H         -5.52219      -15.29117       -7.36028
H         -7.00426      -16.24671       -9.44702
H         -9.04581      -14.47004       -9.79175
H         -8.68722      -12.53651       -7.89591
H          4.64225       -0.93251       -4.41255
H          4.48045        0.48770       -3.39493
H          2.12346        0.79077       -4.46058
H          2.66560       -0.40409       -5.66099
H          1.67763        0.84887       -7.91465
H          3.30229        0.87275       -8.64504
H          2.16332        2.20075       -8.94707
H          0.96965        2.81311       -5.58220
H          1.43779        4.18210       -6.59779
H          2.18800        3.97305       -5.00303
H          5.47255        2.89682       -7.57366
H          5.06478        3.99569       -6.23427
H          4.38357        4.27220       -7.85128
H          2.85331        2.86286       -0.64051
H          3.88347        2.37913       -3.48569
H          4.84915        2.95208       -2.10865
H          3.47871        3.88818       -2.68305
H          1.31056        1.69488       -3.00949
H          1.15492        3.28261       -2.27187
H          0.69587        1.84747       -1.34299
H          5.17013       -0.16687       -0.18379
H          5.24569        1.57931       -0.26907
H          5.35937        0.67133       -1.75363
