50

C          6.02184       -2.59698       -4.75540
C          5.56047       -1.27894       -4.12953
C          5.91889       -1.17203       -2.64265
C          5.54410        0.16573       -1.99306
N          4.09741        0.46067       -2.02157
C          3.63640        1.36499       -2.91916
O          4.33841        2.01163       -3.69673
C          2.09610        1.60232       -2.92465
N          1.74875        2.47180       -4.05718
C          1.15727        1.89407       -5.13827
C          0.87427        2.60639       -6.27972
C          1.23657        3.96253       -6.35827
C          1.84390        4.52466       -5.23794
C          2.09300        3.79460       -4.07625
C          2.73835        4.48165       -2.89902
C          1.91983        5.67301       -2.35341
C          0.89354        5.34526       -1.28877
Br        -0.55678        4.20147       -2.00627
Br         3.17121        6.93788       -1.48170
C          1.00453        4.74842       -7.62757
C          1.05334        6.23751       -7.47393
C          2.02511        7.06826       -7.86605
Br         3.61648        6.47689       -8.69757
Br        -0.46987        7.00948       -6.60963
C          3.23035       -0.36003       -1.17917
H          5.75150       -2.65151       -5.81824
H          5.56841       -3.46342       -4.25186
H          7.11331       -2.70989       -4.68617
H          4.46811       -1.17867       -4.25491
H          6.00314       -0.42789       -4.67134
H          7.00721       -1.29008       -2.51522
H          5.46481       -2.00868       -2.08448
H          6.04123        0.99563       -2.50924
H          5.85662        0.17994       -0.93772
H          1.74523        2.06834       -1.99429
H          1.53921        0.66655       -3.04693
H          0.92514        0.83574       -5.04100
H          0.38610        2.09827       -7.11073
H          2.14638        5.57147       -5.25962
H          3.70640        4.85576       -3.25964
H          2.97529        3.79508       -2.08007
H          1.46669        6.25717       -3.16295
H          0.38800        6.24377       -0.92594
H          1.32599        4.79212       -0.44828
H          0.03781        4.44956       -8.06245
H          1.78043        4.44759       -8.35532
H          1.98065        8.14750       -7.74203
H          3.79279       -0.65542       -0.28521
H          2.89891       -1.27740       -1.69126
H          2.34988        0.19734       -0.83794
