52

N          2.84067       -1.73955        1.44020
C          3.10713       -3.17652        1.57920
C          3.62544       -3.72828        0.24298
N          4.64866       -2.80720       -0.23329
C          5.58027       -3.08557       -1.14999
N          5.58181       -4.28712       -1.74864
C          6.59503       -4.82793       -2.64287
C          6.44964       -6.35748       -2.65026
O          5.06577       -6.60403       -2.94268
C          4.50492       -7.80938       -2.36366
C          3.76030       -7.51272       -1.08354
C          2.44658       -7.01767       -1.13709
C          1.74213       -6.73508        0.03517
C          2.34627       -6.93845        1.28028
C          3.65599       -7.42367        1.34708
C          4.35616       -7.71231        0.17154
C          7.37137       -7.01269       -3.67205
N          6.52909       -2.17378       -1.45380
C          6.78359       -0.94167       -0.70334
C          7.55809       -1.17180        0.60155
C          7.64487        0.11026        1.45692
C          6.33609        0.60830        1.86276
C          5.23450        1.00454        2.17075
H          2.92086       -1.25847        2.33386
H          1.90319       -1.56087        1.07974
H          2.24058       -3.77966        1.89544
H          3.88975       -3.30425        2.34053
H          2.80044       -3.81067       -0.48624
H          4.04771       -4.73178        0.38938
H          4.48774       -1.84941        0.10270
H          4.73874       -4.86080       -1.70557
H          7.60091       -4.56485       -2.28291
H          6.47091       -4.44133       -3.66983
H          6.68167       -6.72288       -1.63240
H          5.29744       -8.55530       -2.19484
H          3.82197       -8.21068       -3.12524
H          1.96578       -6.87740       -2.10779
H          0.71331       -6.37686       -0.02189
H          1.79098       -6.73838        2.19760
H          4.12436       -7.60114        2.31592
H          5.36577       -8.12470        0.23215
H          7.15015       -6.64529       -4.68311
H          7.23871       -8.10191       -3.66980
H          8.42682       -6.80753       -3.44275
H          7.15297       -2.39973       -2.21819
H          5.83184       -0.42721       -0.49814
H          7.34210       -0.27566       -1.37469
H          8.57439       -1.52398        0.37193
H          7.06382       -1.96079        1.18792
H          8.17662        0.90175        0.90185
H          8.25412       -0.09381        2.35087
H          4.28511        1.40682        2.45575
