62

C          1.71344       -2.83372       -2.58445
C          0.86394       -2.13240       -1.55605
C          1.43571       -1.32700       -0.55785
C          0.63610       -0.61650        0.33620
C         -0.76869       -0.67812        0.30718
C         -1.33006       -1.53048       -0.66194
C         -0.53509       -2.22652       -1.58601
O         -2.71795       -1.66683       -0.79578
C         -3.39228       -2.38789        0.22894
N         -3.77456       -3.74471       -0.16111
C         -2.89904       -4.76408        0.00280
N         -3.20058       -6.06442        0.09162
N         -2.08172       -6.83815        0.25501
C         -1.07983       -5.99200        0.26558
N         -1.54516       -4.69210        0.11301
C          0.35792       -6.37795        0.38735
C          1.19754       -5.42406        1.23424
O          0.57438       -5.30029        2.50467
C          1.30268       -4.48977        3.40545
C          0.42777       -4.24012        4.62915
F          0.06384       -5.38552        5.24199
F          1.10540       -3.47812        5.52148
F         -0.71274       -3.57338        4.29788
C         -5.08694       -3.99782       -0.77091
C         -6.16632       -4.72743        0.10188
N         -6.04124       -4.29213        1.48944
N         -7.42238       -4.49599       -0.61580
N         -5.91047       -6.18885        0.09948
C         -1.60543        0.19681        1.22931
C         -1.35577       -0.11004        2.71627
C         -1.36614        1.68814        0.92315
H          1.92080       -2.16622       -3.43496
H          1.21459       -3.72456       -2.98880
H          2.68419       -3.13411       -2.16868
H          2.52180       -1.23243       -0.49987
H          1.11779        0.03113        1.07157
H         -1.03499       -2.81537       -2.35901
H         -4.32285       -1.84615        0.44433
H         -2.77948       -2.43953        1.14128
H         -4.21230       -6.40592        0.12030
H         -0.98968       -3.84772       -0.06721
H          0.80941       -6.43966       -0.61679
H          0.37934       -7.39012        0.81227
H          1.28848       -4.42855        0.75271
H          2.21930       -5.83493        1.32784
H          1.55265       -3.50615        2.96754
H          2.23459       -4.97892        3.74145
H         -4.96405       -4.57523       -1.69854
H         -5.48213       -3.01669       -1.06435
H         -6.16023       -3.28104        1.56324
H         -6.77917       -4.70641        2.06407
H         -7.67677       -3.50696       -0.63671
H         -8.19358       -5.00218       -0.17676
H         -6.32923       -6.62539        0.92370
H         -6.35452       -6.59830       -0.72614
H         -2.66510       -0.00399        1.01167
H         -0.31852        0.11667        3.00237
H         -1.54240       -1.16567        2.96012
H         -2.01203        0.50544        3.34711
H         -0.32603        1.97738        1.13005
H         -2.01684        2.31334        1.54984
H         -1.57841        1.91933       -0.12906
