59

S          1.47404        1.03614       -0.13433
C          3.06836        0.77209        0.20370
N          3.59076        0.42992        1.43021
C          4.89264        0.83659        1.87031
C          5.71116       -0.08034        2.54427
C          6.97758        0.31178        2.97748
C          7.43283        1.61445        2.74323
C          6.60368        2.53238        2.09126
C          5.32905        2.15293        1.66476
C          2.69981       -0.09298        2.44347
C          2.44549        0.65829        3.59379
C          1.59834        0.14288        4.57581
C          1.01140       -1.11404        4.40879
C          1.27747       -1.86158        3.25735
C          2.12489       -1.35572        2.27220
S          4.10734        0.98610       -1.21702
C          5.75107        0.17480       -0.99770
C          6.34287        0.09052       -2.40777
C          7.75957       -0.50705       -2.42949
C          8.42657       -0.56153       -3.80842
C          8.62349        0.78951       -4.49920
O          9.18035        0.63418       -5.79834
C          8.30691       -0.05899       -6.67821
C          8.06056       -1.49343       -6.19035
N          7.58055       -1.43523       -4.74612
I          9.75191       -2.83621       -6.28144
C          8.86816        0.01932       -8.09134
C          8.84148        1.45469       -8.62973
C          9.50966        1.56787       -9.98981
F         10.82092        1.20974       -9.93421
F          8.91304        0.76126      -10.91092
F          9.44940        2.83568      -10.45595
H          5.34528       -1.09101        2.72842
H          7.61143       -0.40181        3.50495
H          8.42199        1.91759        3.08736
H          6.93857        3.55832        1.93372
H          4.66865        2.86939        1.17626
H          2.90117        1.64180        3.71015
H          1.38965        0.73101        5.46984
H          0.34679       -1.51199        5.17582
H          0.82261       -2.84378        3.12582
H          2.32994       -1.92388        1.36451
H          5.61572       -0.82232       -0.55738
H          6.39870        0.76729       -0.33788
H          6.35157        1.10326       -2.84116
H          5.64505       -0.50495       -3.02753
H          7.75588       -1.51922       -1.99034
H          8.42471        0.08754       -1.78356
H          9.39643       -1.07644       -3.75303
H          9.33682        1.38512       -3.91517
H          7.67398        1.35410       -4.55988
H          7.30552        0.43362       -6.65762
H          7.26796       -1.98248       -6.76882
H          7.54760       -2.39393       -4.36869
H          6.61257       -1.07120       -4.72507
H          8.28802       -0.64437       -8.75047
H          9.90080       -0.35957       -8.07372
H          9.37002        2.13738       -7.95092
H          7.81022        1.81959       -8.74523
