71

C         11.26416        6.84624        0.77604
C         10.54804        5.51909        0.51436
C         11.14113        4.72766       -0.65643
C         10.46011        3.37624       -0.89284
C         11.04756        2.58660       -2.06706
C         10.41468        1.20390       -2.25122
C         11.01259        0.40130       -3.41105
C         10.44069       -1.01435       -3.53089
C         11.06985       -1.84034       -4.65767
C         10.57947       -3.29306       -4.67894
C         11.13846       -4.15616       -5.81891
C         12.67085       -4.26867       -5.81602
C         13.16708       -5.33807       -6.79606
C         14.70538       -5.46813       -6.90027
C         15.33635       -6.04727       -5.59424
C         15.59592       -7.56284       -5.59951
O         14.51891       -8.33466       -6.16071
N         14.98634       -6.43111       -8.01301
C         15.80265       -6.01535       -8.91446
C         16.27947       -4.64558       -8.64181
C         15.36590       -4.16364       -7.48286
C         16.05753       -3.23720       -6.48294
C         16.42729       -1.90488       -7.12970
O         16.37830       -1.69542       -8.32871
O         16.81080       -1.02359       -6.19522
C         17.24804        0.29823       -6.66691
C         18.73995        0.31025       -6.93982
H         10.81131        7.38999        1.61642
H         11.22321        7.50387       -0.10512
H         12.32543        6.68574        1.01822
H          9.47878        5.70775        0.31947
H         10.58195        4.89699        1.42504
H         12.21866        4.56442       -0.47527
H         11.08017        5.33648       -1.57596
H          9.38048        3.53372       -1.06244
H         10.53384        2.76790        0.02598
H         12.13572        2.46884       -1.91672
H         10.93338        3.17150       -2.99667
H          9.32705        1.31408       -2.40462
H         10.52901        0.62729       -1.31629
H         12.10804        0.33752       -3.27942
H         10.85379        0.94663       -4.35797
H          9.34861       -0.96233       -3.68088
H         10.58726       -1.54354       -2.57274
H         12.16751       -1.81289       -4.53876
H         10.85771       -1.36370       -5.63130
H          9.47973       -3.30209       -4.74589
H         10.82400       -3.77064       -3.71372
H         10.80922       -3.75101       -6.79105
H         10.70272       -5.16673       -5.74616
H         13.01080       -4.50010       -4.79243
H         13.10573       -3.29031       -6.07127
H         12.78120       -5.10841       -7.80366
H         12.74711       -6.31657       -6.51279
H         14.67600       -5.78104       -4.75898
H         16.30227       -5.56551       -5.38777
H         15.83258       -7.89954       -4.57983
H         16.47417       -7.79877       -6.21931
H         13.87006       -8.54701       -5.47224
H         14.58870       -7.37963       -7.94078
H         16.08978       -6.65727       -9.75096
H         16.23877       -3.99460       -9.52624
H         17.35255       -4.69785       -8.37531
H         14.55293       -3.58768       -7.95066
H         16.98751       -3.67619       -6.08651
H         15.42200       -3.03411       -5.60992
H         16.97508        0.96838       -5.84345
H         16.66400        0.55293       -7.56006
H         19.30857        0.01860       -6.04737
H         19.04899        1.32648       -7.22105
H         19.00114       -0.36089       -7.76799
