90

C          1.15772        0.86650        0.27355
C          2.40698        0.01321        0.03959
C          2.83715       -0.03999       -1.43070
C          4.08713       -0.89001       -1.67921
C          4.55207       -0.88808       -3.13914
C          5.79951       -1.74250       -3.38687
C          6.34014       -1.64557       -4.81728
C          7.59100       -2.49704       -5.06090
C          8.27331       -2.21378       -6.40282
C          9.52645       -3.06133       -6.65029
C         10.36233       -2.57720       -7.83927
C         11.62159       -3.41262       -8.09485
C         12.59409       -2.75395       -9.07797
C         13.87191       -3.56823       -9.31038
C         14.95157       -2.76665      -10.06898
C         16.40966       -3.08572       -9.72693
O         16.55441       -4.47527       -9.34006
C         17.85983       -4.61044       -8.91490
N         18.10185       -3.36424       -8.06053
C         17.08341       -2.30079       -8.54679
C         17.90789       -1.07759       -9.03041
C         17.09131       -0.00002       -9.70802
C         16.88229       -0.02402      -11.09579
C         16.08749        0.93680      -11.71731
C         15.47796        1.96473      -10.97928
C         15.71161        2.00208       -9.59664
C         16.50831        1.04168       -8.97213
C         14.63906        3.01459      -11.65796
C         16.12480       -1.96626       -7.35823
C         16.75790       -2.12206       -5.99230
C         17.55586       -1.09263       -5.46070
C         18.20147       -1.23260       -4.23338
C         18.05808       -2.42127       -3.51321
C         17.25650       -3.44432       -4.01724
C         16.58871       -3.32123       -5.24917
C         15.65982       -4.42995       -5.69520
H          0.87338        0.88478        1.33474
H          0.29793        0.47995       -0.29369
H          1.32007        1.90740       -0.04414
H          2.22754       -1.01281        0.40370
H          3.24094        0.40596        0.64633
H          3.01816        0.98819       -1.79199
H          2.00251       -0.42917       -2.04044
H          3.89462       -1.92826       -1.35562
H          4.90919       -0.52350       -1.03870
H          4.75647        0.15163       -3.45109
H          3.73123       -1.24021       -3.78820
H          5.57571       -2.79676       -3.14592
H          6.59394       -1.43609       -2.68303
H          6.57395       -0.58884       -5.03947
H          5.55176       -1.93503       -5.53389
H          7.33007       -3.56749       -4.99130
H          8.31701       -2.31171       -4.24902
H          8.54933       -1.14471       -6.43866
H          7.55632       -2.36522       -7.22800
H          9.23943       -4.11701       -6.79629
H         10.15772       -3.04368       -5.74349
H         10.65691       -1.52788       -7.65841
H          9.74156       -2.56054       -8.75157
H         11.33874       -4.41615       -8.45557
H         12.14746       -3.57523       -7.13559
H         12.87143       -1.75961       -8.68365
H         12.09043       -2.56257      -10.04045
H         13.64270       -4.49050       -9.86444
H         14.25075       -3.91745       -8.33908
H         14.80622       -1.68866       -9.90300
H         14.82346       -2.91055      -11.15029
H         17.03966       -2.92505      -10.62208
H         18.59921       -4.57825       -9.73592
H         17.97862       -5.51822       -8.31172
H         19.06280       -3.01593       -8.15643
H         17.93016       -3.52336       -7.04466
H         18.67565       -1.44121       -9.73548
H         18.44178       -0.65401       -8.16550
H         17.35222       -0.79933      -11.70525
H         15.94211        0.89286      -12.79832
H         15.27056        2.80144       -8.99841
H         16.68659        1.12131       -7.89756
H         15.27708        3.79894      -12.09377
H         13.95462        3.50247      -10.95285
H         14.04557        2.58810      -12.47722
H         15.23665       -2.59920       -7.42528
H         15.77893       -0.93645       -7.50993
H         17.65326       -0.15472       -6.01036
H         18.80485       -0.41620       -3.83623
H         18.55641       -2.54557       -2.55149
H         17.12355       -4.35920       -3.43705
H         15.74835       -5.29619       -5.02929
H         15.83564       -4.78171       -6.72242
H         14.60971       -4.09912       -5.66194
