56

C         12.52679        5.30704        8.09167
O         13.17783        5.35920        6.83005
C         12.28191        5.17021        5.75099
C         13.10564        5.17136        4.47101
O         12.19737        5.04167        3.37885
C         12.84417        4.91676        2.12803
C         11.75261        4.68839        1.09121
O         12.35700        4.75634       -0.19987
C         11.53635        4.30409       -1.26151
C         10.34886        5.24692       -1.56641
C         10.75810        6.69013       -1.65079
C         10.02204        7.71467       -1.02510
C         10.42014        9.03927       -1.15149
C          9.63457       10.20291       -0.61034
C          9.06571       11.14315       -1.70611
C          8.10072       10.52932       -2.72299
C          6.78794        9.88115       -2.16672
Br         5.77721       11.07665       -0.99959
F          6.00488        9.45625       -3.16967
F          7.13247        8.76962       -1.43855
Br         7.61751       11.91217       -4.02450
F          8.74320        9.50749       -3.41074
C         11.61400        9.25471       -1.85418
N         12.25746        8.22076       -2.41600
N         11.86005        6.95319       -2.36240
C         13.45640        8.44746       -3.23880
C         13.11723        9.32705       -4.45897
O         12.18646       10.10402       -4.49138
O         14.01854        9.11431       -5.41446
C         13.87696        9.92965       -6.61822
H         13.29722        5.46037        8.85615
H         12.04330        4.32673        8.25652
H         11.76083        6.09893        8.18591
H         11.52552        5.97985        5.71274
H         11.73850        4.20966        5.84623
H         13.82463        4.33159        4.48210
H         13.68251        6.11243        4.39195
H         13.55723        4.07083        2.12589
H         13.41304        5.83370        1.87256
H         10.97488        5.46746        1.21849
H         11.27230        3.70511        1.24439
H         11.13514        3.29547       -1.05495
H         12.19633        4.24076       -2.13596
H          9.55584        5.14980       -0.81268
H          9.90380        4.94237       -2.52811
H          9.12034        7.46006       -0.46793
H         10.29715       10.82223        0.01446
H          8.83611        9.83607        0.04537
H          9.88425       11.57271       -2.30097
H          8.55992       11.98224       -1.21315
H         12.05977       10.23642       -1.99541
H         13.83368        7.46584       -3.53771
H         14.22073        8.95840       -2.63545
H         14.71586        9.63786       -7.25414
H         13.92942       10.99297       -6.35744
H         12.91939        9.70834       -7.10309
