72

C          0.68963        0.23629        0.67271
C          2.15579        0.43109        0.37046
O          2.86036       -0.82032        0.74025
C          4.17075       -0.88594        0.43199
O          4.85095       -0.01708       -0.05495
C          4.70723       -2.27995        0.78035
N          4.23237       -2.63415        2.18941
C          4.67846       -4.00173        2.65337
C          4.25727       -5.00689        1.57754
O          4.77232       -4.64651        0.31542
C          4.23781       -3.40686       -0.17024
C          4.70157       -3.24176       -1.61754
C          3.87526       -2.23821       -2.43393
P          4.20828       -2.23830       -4.22998
O          3.44506       -1.20332       -4.96320
O          5.80604       -2.14109       -4.19592
C          6.59048       -2.11482       -5.43442
C          6.75804       -0.70209       -5.96246
O          3.92744       -3.75157       -4.70779
C          2.89419       -4.03545       -5.70903
C          3.48093       -4.06318       -7.10688
C          4.61102       -6.48735        1.88713
C          6.05564       -7.08333        1.61271
C          7.34940       -6.47529        2.29162
C          7.54350       -6.43052        3.86195
C          7.52576       -7.73348        4.76011
C          8.54998       -8.91609        4.52527
C         10.11323       -8.68779        4.62607
C         10.71653       -8.12571        5.96753
F         10.25733       -8.81033        7.02720
F         12.05170       -8.24489        5.91211
F         10.41039       -6.82251        6.12026
F         10.66191       -9.90999        4.42153
F         10.50084       -7.86407        3.61734
F          8.21165       -9.85927        5.43763
F          8.32032       -9.41847        3.28358
F          7.68247       -7.29165        6.03459
F          6.28694       -8.27883        4.65351
F          8.71199       -5.78205        4.06635
F          6.54020       -5.63548        4.36203
F          8.40195       -7.12069        1.75504
F          7.41883       -5.15796        1.89291
F          5.98850       -8.39552        1.93774
F          6.27997       -6.98306        0.27780
F          4.27522       -6.71866        3.19270
F          3.78740       -7.24351        1.10792
H          0.14776        1.15322        0.40490
H          0.51496        0.04614        1.74005
H          0.26319       -0.58757        0.08597
H          2.61035        1.24649        0.94888
H          2.35281        0.60767       -0.69514
H          5.80386       -2.24312        0.80703
H          3.20186       -2.54905        2.18844
H          4.57557       -1.92471        2.85124
H          4.20243       -4.20295        3.62004
H          5.76395       -3.95276        2.77522
H          3.14625       -5.03081        1.54177
H          3.12922       -3.45708       -0.13621
H          4.61775       -4.24299       -2.06530
H          5.76760       -2.97395       -1.64525
H          4.04649       -1.19849       -2.12387
H          2.79557       -2.43822       -2.34515
H          6.11257       -2.77603       -6.17283
H          7.55313       -2.56201       -5.15393
H          5.79429       -0.26755       -6.25659
H          7.41521       -0.72149       -6.84398
H          7.22126       -0.05406       -5.20657
H          2.10241       -3.27781       -5.62655
H          2.49046       -5.01440       -5.41848
H          3.83823       -3.06721       -7.40189
H          2.70743       -4.36845       -7.82594
H          4.31098       -4.77926       -7.17363
