47

C         -0.07158        4.61080       -2.86090
C          1.41400        4.91089       -2.65489
C          2.31979        3.73780       -3.04290
C          3.81188        4.04063       -2.87922
C          4.70956        2.85684       -3.25626
C          6.20433        3.19549       -3.17575
C          7.06994        1.99231       -3.52811
N          8.56964        2.34324       -3.50561
C          9.38293        1.45709       -2.63044
C          9.39570        0.08095       -2.85672
C         10.18447       -0.72257       -2.03037
C         10.94123       -0.15144       -1.00244
C         10.91529        1.22886       -0.79276
C         10.13144        2.04529       -1.61354
C          9.19065        2.46850       -4.89469
C          8.56537        3.55812       -5.75403
C          9.45577        3.82194       -6.98502
N         10.76440        4.32788       -6.56064
H         -0.69660        5.46626       -2.57268
H         -0.39183        3.74720       -2.25983
H         -0.28862        4.38049       -3.91439
H          1.59658        5.17700       -1.60040
H          1.69701        5.79805       -3.24618
H          2.11926        3.45492       -4.09113
H          2.05463        2.85616       -2.43376
H          4.01673        4.33674       -1.83610
H          4.07632        4.91224       -3.50310
H          4.46857        2.52610       -4.28096
H          4.48899        2.00178       -2.59544
H          6.45090        3.53482       -2.15453
H          6.42256        4.03357       -3.85731
H          6.84893        1.60676       -4.53159
H          6.93033        1.18067       -2.80506
H          8.62796        3.28166       -3.08469
H          8.80304       -0.36856       -3.65456
H         10.20386       -1.80021       -2.19213
H         11.55160       -0.78757       -0.36146
H         11.50241        1.67681        0.00872
H         10.11062        3.12638       -1.45473
H          9.10380        1.47574       -5.35592
H         10.25421        2.69401       -4.73669
H          8.48706        4.49630       -5.17801
H          7.55091        3.29021       -6.08381
H          8.90851        4.49404       -7.66824
H          9.60948        2.87924       -7.53198
H         10.73589        5.33761       -6.41530
H         11.47244        4.15798       -7.27378
