75

C          0.52015        2.42445        4.01168
C          2.01508        2.73468        4.10906
C          2.59477        3.32681        2.82043
C          4.09440        3.62360        2.90906
C          4.68287        4.22135        1.62698
C          6.19096        4.47390        1.72269
C          6.80206        5.05165        0.44124
C          8.32138        5.21047        0.54440
C          8.96358        5.73117       -0.76511
C         10.45775        5.73841       -0.66006
C         11.20749        6.89545       -0.34980
C         12.58623        6.80469       -0.21156
C         13.46231        7.99014        0.08153
O         12.64440        9.12425        0.28151
C         13.36773       10.32024        0.48584
O         14.06731       10.63025       -0.69469
C         14.73419       11.90604       -0.63863
C         15.30704       12.17719       -2.01793
O         14.29690       12.31626       -3.00883
C         13.15810        5.53125       -0.36632
N         12.36572        4.49435       -0.65486
N         11.05000        4.54671       -0.81998
C         12.91700        3.10928       -0.84329
O         14.20739        3.09364       -0.35045
C         14.69845        1.75905       -0.02942
C         15.93218        1.89596        0.84169
C         16.47397        0.53442        1.29631
C         17.62600        0.66582        2.29774
C         18.17022       -0.68030        2.78548
C         19.27353       -0.52968        3.83475
H          0.13419        2.00485        4.95056
H          0.31567        1.69638        3.21267
H         -0.06105        3.33144        3.78887
H          2.56730        1.81448        4.36446
H          2.19386        3.43595        4.94153
H          2.05086        4.25416        2.56886
H          2.40894        2.63019        1.98402
H          4.63389        2.69189        3.15519
H          4.28086        4.31296        3.75115
H          4.16458        5.16631        1.38952
H          4.48094        3.54170        0.78084
H          6.69928        3.52499        1.96845
H          6.39528        5.15611        2.56596
H          6.33822        6.02595        0.21247
H          6.56504        4.38963       -0.40912
H          8.77519        4.23613        0.78935
H          8.57414        5.89297        1.37295
H          8.60229        6.74411       -0.99200
H          8.67249        5.07111       -1.59530
H         10.71271        7.85807       -0.22414
H         14.15695        8.14482       -0.76598
H         14.08362        7.78057        0.97676
H         14.07256       10.20697        1.33821
H         12.61074       11.08731        0.72354
H         15.53931       11.88585        0.11916
H         14.00565       12.69171       -0.36906
H         16.02444       11.37771       -2.28160
H         15.85675       13.12870       -1.99567
H         13.77865       11.49558       -3.01202
H         14.21812        5.30282       -0.26319
H         12.84696        2.89904       -1.92764
H         12.22736        2.44213       -0.29848
H         14.91700        1.22382       -0.96910
H         13.90038        1.21278        0.50501
H         15.67016        2.50094        1.72487
H         16.70998        2.44817        0.29120
H         16.80788       -0.04642        0.42032
H         15.65978       -0.04858        1.76038
H         17.28099        1.25264        3.16725
H         18.44533        1.24898        1.84274
H         18.55094       -1.25340        1.92391
H         17.34141       -1.27519        3.20477
H         20.12674        0.04085        3.43945
H         19.65049       -1.50741        4.16282
H         18.90429        0.00004        4.72536
