75

C          7.69857       -3.30329        2.23296
C          7.15964       -1.94806        1.76776
C          7.12132       -1.82247        0.23905
C          6.61497       -0.46966       -0.23097
O          6.60151       -0.47528       -1.67073
C          6.18472        0.74843       -2.23057
C          6.14553        0.52249       -3.71126
C          6.40414       -0.63372       -4.41310
C          6.78693       -2.04372       -4.06011
O          6.81816       -2.74615       -5.29114
C          7.02299       -4.16768       -5.14172
C          6.93203       -4.82383       -6.50854
C          7.06013       -6.35167       -6.42931
C          6.90485       -7.04449       -7.78851
C          6.93435       -8.57385       -7.69345
C          6.72321       -9.28165       -9.03654
C          6.67616      -10.80884       -8.91750
C          6.42584      -11.52780      -10.24734
C          6.34189      -13.05271      -10.11228
C          6.06364      -13.76778      -11.43703
N          6.22902       -0.32799       -5.75096
C          5.87781        0.94271       -5.90944
N          5.81841        1.49081       -4.67240
C          5.44417        2.87485       -4.39105
O          5.40060        3.28860       -3.26286
O          5.18644        3.48204       -5.53706
C          4.82347        4.92016       -5.45716
C          6.06251        5.79592       -5.49076
C          5.69178        7.28573       -5.56329
C          6.92424        8.19317       -5.58244
H          7.70906       -3.37177        3.32858
H          8.72726       -3.46711        1.87997
H          7.08102       -4.13120        1.85472
H          7.78187       -1.14017        2.18708
H          6.14591       -1.79463        2.17345
H          6.47504       -2.60983       -0.18388
H          8.13074       -1.98450       -0.17434
H          7.26980        0.34728        0.12681
H          5.59194       -0.27191        0.14222
H          6.87606        1.57748       -1.98256
H          5.18505        1.05506       -1.86341
H          6.04537       -2.47095       -3.36207
H          7.76514       -2.05902       -3.54669
H          6.24891       -4.56788       -4.46088
H          8.00981       -4.34409       -4.67579
H          7.71751       -4.41174       -7.16275
H          5.96326       -4.55855       -6.96326
H          6.29447       -6.74434       -5.73786
H          8.03509       -6.62096       -5.98856
H          7.70001       -6.69943       -8.47191
H          5.95171       -6.72952       -8.24845
H          6.15393       -8.90504       -6.98575
H          7.89462       -8.89710       -7.25500
H          7.52527       -8.99053       -9.73719
H          5.78184       -8.92465       -9.49055
H          5.88507      -11.09044       -8.20012
H          7.62227      -11.17126       -8.47832
H          7.22581      -11.26793      -10.96303
H          5.48860      -11.15128      -10.69450
H          5.55342      -13.30761       -9.38380
H          7.28390      -13.43056       -9.67975
H          5.10766      -13.44252      -11.87398
H          6.01285      -14.85706      -11.30328
H          6.85131      -13.56126      -12.17695
H          6.35672       -1.04712       -6.46669
H          5.67118        1.45884       -6.83752
H          4.22905        5.06309       -4.54587
H          4.18927        5.06048       -6.34047
H          6.67428        5.52240       -6.36547
H          6.67189        5.60808       -4.59251
H          5.05361        7.54719       -4.70371
H          5.08360        7.46693       -6.46470
H          7.52785        8.06923       -4.67195
H          6.63240        9.24906       -5.64663
H          7.57013        7.97394       -6.44496
