70

C         11.11830       -7.36286       -8.91055
C         10.74128       -6.51215       -7.69510
C         11.20662       -7.11102       -6.36292
C         10.83062       -6.26221       -5.14407
C         11.25977       -6.87564       -3.80691
C         10.88059       -6.02019       -2.59313
C         11.24216       -6.66200       -1.24899
C         10.86327       -5.79695       -0.04187
C         11.15043       -6.46527        1.30839
C         10.77886       -5.57504        2.50181
C         10.92674       -6.23931        3.87250
N         12.32125       -6.61445        4.13305
C         12.87267       -6.75243        5.33779
N         12.15420       -6.79704        6.46331
N         14.24106       -6.87315        5.42883
N         15.10468       -6.17129        4.53580
N         14.94252       -6.80501        3.19915
N         14.77167       -4.80665        4.47224
C         14.92735       -7.40926        6.60412
C         14.98804       -6.45739        7.80813
O         13.99174       -5.90685        8.26609
O         16.21805       -6.35237        8.28862
C         16.40249       -5.54465        9.51241
C         16.16210       -6.37292       10.76436
C         16.46355       -5.56675       12.03541
C         16.19632       -6.35749       13.32210
C         16.50635       -5.55991       14.59057
H         10.76797       -6.90559       -9.84598
H         10.67643       -8.36855       -8.84752
H         12.20871       -7.48656       -8.99005
H          9.64697       -6.37496       -7.66656
H         11.16801       -5.50080       -7.80645
H         12.30191       -7.25128       -6.38868
H         10.77691       -8.12233       -6.25018
H          9.73784       -6.10361       -5.13478
H         11.27885       -5.25812       -5.24663
H         12.35155       -7.04193       -3.81219
H         10.80319       -7.87590       -3.70394
H          9.79525       -5.81906       -2.61574
H         11.37092       -5.03406       -2.67302
H         12.32559       -6.87574       -1.22260
H         10.73890       -7.64136       -1.16796
H          9.78999       -5.54577       -0.09544
H         11.40095       -4.83422       -0.09645
H         12.22147       -6.73841        1.34539
H         10.59225       -7.41527        1.37379
H          9.72595       -5.26596        2.41057
H         11.37012       -4.64388        2.48384
H         10.28799       -7.13824        3.92425
H         10.60099       -5.54605        4.66341
H         12.96389       -6.77306        3.34373
H         11.14522       -6.87595        6.42134
H         12.62392       -6.47970        7.33526
H         15.31412       -7.75677        3.31147
H         15.63152       -6.32441        2.60984
H         15.63344       -4.27928        4.33699
H         14.10729       -4.59603        3.71805
H         15.93975       -7.67641        6.28593
H         14.40963       -8.32375        6.93337
H         15.72856       -4.68012        9.45275
H         17.44380       -5.20936        9.43525
H         16.79834       -7.27163       10.73010
H         15.11494       -6.71406       10.78293
H         15.85406       -4.64652       12.04187
H         17.51644       -5.23608       12.02179
H         16.79621       -7.28289       13.31027
H         15.14144       -6.67927       13.33540
H         17.56449       -5.26217       14.62808
H         16.29596       -6.14914       15.49310
H         15.90162       -4.64249       14.64498
