54

C         10.58016       -1.36004       -4.04033
C          9.56554       -1.09426       -2.92668
C          9.82100        0.22120       -2.18335
C          8.79920        0.49336       -1.07446
C          9.08666        1.78224       -0.28927
C          8.05901        2.00048        0.81139
O          8.38812        3.11428        1.70796
C          8.04382        4.36293        1.22503
S          8.97696        5.71867        2.05614
C          8.43969        5.87171        3.93055
C          9.37224        5.08392        4.89312
C          9.22912        5.59147        6.34675
C          9.16502        3.56426        4.86825
C          8.58267        7.39569        4.12758
O          7.79341        8.06933        3.15897
C          6.97290        5.45209        3.97617
C         10.68564        5.08787        2.01388
C         11.23546        5.16151        0.58599
C         12.71015        4.76755        0.55865
F         13.45329        5.58596        1.34868
F         12.89055        3.49702        1.00665
F         13.19795        4.84021       -0.69539
H         10.37616       -2.31283       -4.54639
H         11.60511       -1.40701       -3.64379
H         10.55421       -0.56683       -4.80191
H          9.58465       -1.92601       -2.20269
H          8.54666       -1.08117       -3.34851
H          9.81200        1.05688       -2.90478
H         10.83564        0.20225       -1.74888
H          8.78769       -0.35816       -0.37308
H          7.78782        0.54386       -1.51235
H          9.09638        2.63503       -0.99032
H         10.08836        1.71924        0.16613
H          8.02222        1.13480        1.48578
H          7.04605        2.15524        0.40408
H          6.98401        4.63814        1.38026
H          8.29209        4.51925        0.15828
H         10.41153        5.30251        4.59947
H          8.19406        5.51535        6.70791
H          9.57359        6.62378        6.48072
H          9.84632        4.95771        6.99639
H          8.21088        3.28667        5.33763
H          9.96208        3.08152        5.44852
H          9.17188        3.14136        3.85677
H          9.64837        7.69110        4.07055
H          8.23024        7.61574        5.14836
H          7.79897        9.02028        3.34879
H          6.83685        4.38620        3.76329
H          6.35697        6.05585        3.29873
H          6.60236        5.63971        4.99443
H         10.70067        4.06852        2.41577
H         11.24981        5.75768        2.67655
H         11.16101        6.17833        0.17642
H         10.71106        4.47308       -0.08972
