50

F          1.88858        0.66058       -1.86316
C          2.62564        0.15695       -0.79062
C          3.12763        1.32151        0.05630
C          3.90499        0.81269        1.27409
N          4.56768        1.89779        2.01892
C          3.83028        3.08310        2.55855
C          4.89508        4.20260        2.43865
N          6.14611        3.45125        2.27160
C          5.88692        2.14768        2.01385
N          6.87333        1.27408        1.76827
C          6.87213       -0.17937        1.98119
C          8.19850       -0.61923        2.61526
O          8.17980       -2.01710        2.65965
Si         9.43117       -2.98504        3.28403
C         11.01955       -2.60035        2.35796
C          9.63059       -2.61425        5.11459
C          8.83316       -4.72572        2.97203
C          3.32899        2.86138        3.99808
C          1.96613        2.20414        4.14235
C          0.79563        2.57567        3.33420
O          1.50779        1.34523        3.08057
H          3.45847       -0.43337       -1.20679
H          1.96702       -0.51149       -0.21269
H          2.25603        1.91171        0.37311
H          3.77055        1.96563       -0.56393
H          4.68730        0.12101        0.94409
H          3.23768        0.27508        1.95925
H          2.99180        3.29631        1.88583
H          4.94040        4.82492        3.33989
H          4.72081        4.85401        1.57047
H          7.01235        3.74165        2.71124
H          7.77525        1.68749        1.54502
H          6.74534       -0.71863        1.03013
H          6.04375       -0.44780        2.64804
H          8.29480       -0.16542        3.62186
H          9.03982       -0.23683        1.99781
H         11.35868       -1.56716        2.51948
H         10.90190       -2.76080        1.27719
H         11.82627       -3.26181        2.70567
H          9.95423       -1.57930        5.29605
H         10.39518       -3.27245        5.55215
H          8.69274       -2.78431        5.66133
H          8.69113       -4.90825        1.89817
H          7.87904       -4.91570        3.48201
H          9.56484       -5.45680        3.34391
H          3.27332        3.83929        4.50377
H          4.08055        2.27338        4.54856
H          1.76903        1.80588        5.14379
H          0.88335        3.33408        2.54866
H         -0.20751        2.45342        3.75018
