45

O          2.46897       -2.89040       -0.20472
C          2.52143       -3.32182        1.15568
C          3.00121       -2.14720        2.02022
C          2.28758       -0.79522        1.79723
C          0.79906       -0.65432        2.16371
C         -0.14180       -1.55805        1.33203
C         -1.43683       -0.76915        1.13090
C         -0.92537        0.61962        0.80170
N          0.26646        0.82752        1.72702
C          1.25837        1.82004        1.18979
C          0.69190        3.25620        1.17820
C          1.84760        4.27348        1.06689
F          2.78889        4.05440        2.02130
F          2.45456        4.15946       -0.14948
F          1.40248        5.53014        1.19281
O         -0.27425        3.48097        0.17497
C          0.46928       -0.83443        3.66898
C          1.33730       -0.17841        4.75291
C          1.42335        1.33281        4.83153
Br        -0.33589        2.23533        4.76877
Br         0.68870       -0.87320        6.48590
O          2.92385       -2.48980        3.40651
H          2.55359       -3.66157       -0.78550
H          3.24027       -4.14931        1.28513
H          1.53954       -3.68155        1.50912
H          4.04982       -1.94337        1.73631
H          2.41754       -0.57355        0.72828
H          2.88280       -0.06121        2.36023
H         -0.31207       -2.50969        1.84820
H          0.32219       -1.78224        0.36062
H         -2.06069       -0.76261        2.03604
H         -2.04958       -1.16732        0.31343
H         -1.63555        1.44006        0.94872
H         -0.54352        0.67249       -0.22572
H         -0.10536        1.23725        2.61127
H          1.54563        1.51027        0.17718
H          2.14762        1.79032        1.82701
H          0.19961        3.46422        2.14308
H          0.17218        3.63788       -0.67601
H          0.53967       -1.91374        3.85065
H         -0.58285       -0.56088        3.84634
H          2.36400       -0.56471        4.69358
H          1.99809        1.75912        3.99916
H          1.87408        1.66236        5.77179
H          3.55209       -3.20627        3.59170
