63

C          6.09684       -0.85880        2.05456
C          5.08691       -0.55522        0.94577
C          5.56745       -1.00170       -0.44001
C          4.51091       -0.74188       -1.53532
C          4.96371       -1.15596       -2.90933
C          5.42623       -0.23545       -3.85800
C          5.84027       -0.63537       -5.13731
C          6.29508        0.34275       -6.18879
C          5.19786        0.65869       -7.23557
C          3.91855        1.30193       -6.67830
C          4.10045        2.64793       -5.95751
C          4.70773        3.75598       -6.82563
C          4.80981        5.07279       -6.05973
O          5.36802        6.12442       -6.87853
C          6.73503        6.18141       -6.92329
O          7.46093        5.40255       -6.32971
C          7.16623        7.31021       -7.78161
C          8.46248        7.59104       -7.95517
C          5.77872       -1.99538       -5.42877
N          5.35540       -2.89407       -4.50881
C          4.95860       -2.50086       -3.27716
C          5.34950       -4.34703       -4.84714
C          6.72993       -4.84745       -5.25539
O          7.64149       -4.47863       -4.24864
C          8.99695       -4.87448       -4.53581
C          9.87516       -4.36152       -3.41027
O          9.59137       -4.97744       -2.16073
H          5.71998       -0.52740        3.03083
H          7.05462       -0.34819        1.87832
H          6.30085       -1.93695        2.12798
H          4.87366        0.52639        0.92224
H          4.12694       -1.04903        1.17249
H          5.81401       -2.07763       -0.41705
H          6.50255       -0.47929       -0.70277
H          4.25605        0.32829       -1.55448
H          3.58387       -1.27977       -1.27946
H          5.45779        0.82453       -3.59745
H          7.17231       -0.06825       -6.70986
H          6.63074        1.26699       -5.69798
H          4.92780       -0.27117       -7.76200
H          5.65229        1.31034       -7.99606
H          3.41591        0.59664       -5.99480
H          3.22139        1.44096       -7.51948
H          4.72350        2.52113       -5.05480
H          3.11413        2.97120       -5.58748
H          4.09513        3.90738       -7.72863
H          5.71711        3.47618       -7.16251
H          5.43236        4.95371       -5.16049
H          3.81755        5.44429       -5.77009
H          6.37619        7.89586       -8.25321
H          9.23060        6.99004       -7.46585
H          8.78469        8.42222       -8.58133
H          6.07234       -2.39911       -6.39637
H          4.63597       -3.29202       -2.60250
H          4.62261       -4.51314       -5.65408
H          5.00304       -4.87365       -3.95089
H          7.03431       -4.43230       -6.23740
H          6.66225       -5.94549       -5.38110
H          9.31707       -4.43868       -5.50138
H          9.05594       -5.97525       -4.60172
H          9.78736       -3.26024       -3.34876
H         10.92253       -4.60005       -3.64329
H          8.67019       -4.77633       -1.93269
