60

C          1.62050        0.33640        0.96367
C          2.79414       -0.02445        0.04058
C          2.94035        0.67574       -1.33466
C          1.76157        0.48052       -2.30979
C          1.17541       -0.92849       -2.42735
C          2.14963       -1.94998       -3.03217
C          1.51386       -3.33793       -3.15800
C          2.45697       -4.36980       -3.79903
N          1.86552       -5.69130       -3.87989
C          1.94136       -6.66155       -2.89987
C          1.14357       -7.72305       -3.28320
C          0.55612       -7.38276       -4.53398
C          1.01241       -6.12381       -4.87578
N          0.62852        1.44769       -1.93992
C          1.04029        2.90112       -1.99931
C          2.19453        3.13152       -1.03485
C          3.38159        2.17208       -1.27217
C          4.20087        2.58888       -2.51414
C          5.62546        2.00330       -2.56751
C          6.33956        2.39290       -3.84176
C          6.30863        1.55210       -4.96334
C          6.91861        1.93334       -6.16074
C          7.56947        3.16632       -6.25253
C          7.61138        4.01100       -5.13992
C          7.00113        3.62540       -3.94432
H          1.69595       -0.23181        1.90006
H          0.63536        0.06353        0.54530
H          1.59879        1.39738        1.24526
H          2.77832       -1.11242       -0.12599
H          3.73174        0.16661        0.58402
H          3.77127        0.14413       -1.82496
H          2.07148        0.82087       -3.31089
H          0.27931       -0.88494       -3.07264
H          0.83044       -1.28624       -1.44392
H          3.05818       -2.01872       -2.41203
H          2.47938       -1.59505       -4.02377
H          0.59278       -3.27937       -3.75997
H          1.21316       -3.70614       -2.16401
H          3.38985       -4.44669       -3.21966
H          2.73733       -4.05044       -4.81504
H          2.57049       -6.52092       -2.02656
H          1.01525       -8.65063       -2.73484
H         -0.11201       -7.99773       -5.12808
H          0.81906       -5.50769       -5.74848
H          0.30969        1.22033       -0.98533
H         -0.16819        1.27421       -2.56652
H          0.15753        3.50427       -1.75086
H          1.31512        3.09977       -3.04406
H          1.81990        3.04922       -0.00402
H          2.52639        4.17288       -1.15172
H          4.04446        2.26860       -0.39695
H          4.28051        3.68738       -2.53383
H          3.67948        2.31896       -3.44892
H          5.59366        0.90397       -2.49620
H          6.19086        2.35778       -1.69078
H          5.81104        0.58099       -4.89512
H          6.89346        1.26303       -7.02075
H          8.05187        3.46231       -7.18434
H          8.12611        4.97055       -5.20128
H          7.04714        4.28775       -3.07642
