31

N          2.80951       -0.06467       -1.14265
N          2.37302       -0.32613        0.16086
C          3.13031        0.10427        1.22198
N          2.95133       -0.44203        2.48438
C          3.74566        0.15402        3.39496
N          4.44525        1.09870        2.71076
C          4.08674        1.08538        1.34854
C          5.35906        1.93378        3.26330
C          6.17239        2.68113        3.74686
C          3.81719       -0.11335        4.85325
C          2.99160        0.88921        5.70063
C          1.47991        0.73156        5.51506
S          0.62431        2.13236        6.27580
O          0.79142        2.07393        7.71086
O          0.97002        3.30335        5.51007
O         -0.91339        1.76236        5.92158
N          1.70094       -1.54655        0.40574
H          3.82583       -0.14663       -1.23932
H          2.48311        0.84792       -1.46128
H          2.30808       -1.22149        2.62631
H          4.52789        1.77411        0.64243
H          6.89337        3.35015        4.17283
H          4.87183       -0.05491        5.16101
H          3.48673       -1.14611        5.03760
H          3.29537        1.91503        5.44535
H          3.25297        0.73377        6.75595
H          1.09248       -0.18354        5.98345
H          1.17117        0.75755        4.45977
H         -1.36883        1.56080        6.76258
H          2.17660       -2.30332       -0.09874
H          0.75789       -1.46746        0.01945
