66

C          8.85927       11.43569       -3.71360
C          8.26632       10.91800       -2.40077
C          8.96795        9.66287       -1.86875
C          8.38216        9.14402       -0.55149
C          9.06803        7.87942       -0.02290
C          8.47400        7.36733        1.29338
C          9.13032        6.08563        1.81879
C          8.52061        5.59818        3.13896
C          9.05110        4.24899        3.65146
C         10.56439        4.17062        3.91408
C         11.08417        5.21561        4.91169
C         12.56120        4.98137        5.25990
C         13.22186        6.07267        6.12818
N         13.09548        7.38618        5.44201
C         14.25221        8.04105        5.37678
N         14.41753        9.25715        4.84977
N         15.25551        7.33016        5.93151
C         14.80385        5.97318        6.23834
N         15.45414        5.03264        5.29653
N         16.80273        5.47954        5.06409
N         15.43923        3.70299        5.78685
C         12.58731        6.11398        7.53841
C         13.11158        7.18749        8.52962
C         12.09970        8.33157        8.73273
F         10.96757        7.88342        9.33306
F         12.60708        9.32217        9.48323
F         11.72561        8.88213        7.53073
O         13.48040        6.64414        9.78262
H          8.33147       12.33140       -4.06840
H          8.79475       10.67712       -4.50782
H          9.92094       11.70073       -3.59702
H          7.19429       10.69966       -2.54134
H          8.31308       11.71200       -1.63592
H         10.04371        9.87629       -1.73379
H          8.91410        8.86595       -2.63135
H          7.30548        8.94117       -0.68748
H          8.44185        9.93957        0.21277
H         10.14724        8.07667        0.11173
H          9.00258        7.08390       -0.78546
H          7.39340        7.18808        1.15852
H          8.54932        8.15886        2.06107
H         10.21561        6.25923        1.93624
H          9.03822        5.28980        1.05920
H          7.43001        5.50555        3.01211
H          8.65255        6.37646        3.91183
H          8.79038        3.46205        2.92583
H          8.51604        3.98993        4.58026
H         11.12063        4.27248        2.96754
H         10.80002        3.16318        4.29520
H         10.45971        5.18705        5.81955
H         10.94766        6.21843        4.47251
H         13.14673        4.89429        4.33258
H         12.64584        4.02100        5.79078
H         12.19483        7.83586        5.31723
H         13.63745        9.77760        4.46868
H         15.31135        9.72815        4.91632
H         16.20608        7.31785        5.52607
H         15.08906        5.71396        7.27929
H         17.06007        5.15587        4.13046
H         17.43442        5.00773        5.72391
H         14.70055        3.17036        5.33089
H         15.32245        3.65817        6.80623
H         12.78933        5.13671        8.00055
H         11.49547        6.18605        7.44004
H         14.02642        7.66980        8.15367
H         12.68442        6.32575       10.24338
