65

C          3.14157        0.54061        1.17346
C          1.66553        0.63086        0.89665
C          0.74651       -0.21853        1.52609
C         -0.62412       -0.10587        1.28223
C         -1.12671        0.85839        0.39638
C         -0.20266        1.68179       -0.26540
C          1.16190        1.57735       -0.01018
C         -2.61926        0.93209        0.13824
C         -3.47057        2.12306        0.63802
C         -3.28334        3.41236       -0.17984
O         -3.44488        4.51625        0.71935
C         -3.96772        4.06031        1.90897
N         -3.40215        2.63208        2.12640
C         -2.02794        2.66543        2.80013
O         -1.22107        3.60293        2.17322
C          0.10693        3.67531        2.63279
C          0.62856        2.70836        3.49254
C          1.96862        2.75097        3.90625
C          2.51521        1.68051        4.81399
C          2.76147        3.80018        3.43881
C          2.21796        4.77426        2.59998
C          0.88487        4.75687        2.17115
C          0.39664        5.88739        1.27552
C          0.12543        5.43341       -0.16927
C         -0.78708        6.67667        1.86399
C         -4.27462        1.83706        3.05538
C         -5.08047        2.50373        3.98446
C         -5.86665        1.76044        4.86751
C         -5.83893        0.36538        4.83662
C         -5.00621       -0.28915        3.92788
C         -4.21519        0.44241        3.03909
H          3.38246       -0.31720        1.81266
H          3.49573        1.45138        1.67827
H          3.71619        0.44249        0.24162
H          1.10668       -0.98681        2.21303
H         -1.30887       -0.80093        1.77584
H         -0.54021        2.40781       -1.00552
H          1.85352        2.23991       -0.53339
H         -3.08426       -0.00346        0.47192
H         -2.79830        0.95273       -0.95142
H         -4.52259        1.81135        0.57441
H         -4.02974        3.45565       -0.98844
H         -2.27990        3.49686       -0.61127
H         -5.06474        3.93887        1.89225
H         -3.64671        4.71958        2.72588
H         -1.64001        1.63977        2.72838
H         -2.22842        2.92488        3.85422
H          0.01675        1.87830        3.84353
H          2.39725        0.68215        4.36585
H          1.99034        1.66672        5.78073
H          3.58222        1.83468        5.01480
H          3.80782        3.86867        3.74004
H          2.85053        5.59869        2.26408
H          1.24582        6.58813        1.22773
H         -0.73414        4.75451       -0.21474
H          0.99590        4.91376       -0.59177
H         -0.09822        6.29977       -0.80733
H         -1.71796        6.09852        1.82314
H         -0.94643        7.59903        1.28861
H         -0.59394        6.95934        2.90785
H         -5.10790        3.58957        4.04951
H         -6.49948        2.28395        5.58378
H         -6.45721       -0.20933        5.52607
H         -4.96308       -1.37794        3.90487
H         -3.55974       -0.08704        2.35381
