43

O          1.08748       -1.81038       -1.73006
C          1.44668       -0.88045       -0.71186
C          2.92280       -0.49913       -0.93208
C          3.20464       -0.15766       -2.36711
C          4.00357       -0.84576       -3.23983
N          3.95221       -0.20521       -4.45949
C          3.14098        0.86799       -4.40319
N          2.68836        0.90460       -3.12398
Br         1.53675        2.23581       -2.52146
C          2.76660        1.73626       -5.53992
C          1.62309        1.12442       -6.41830
O          0.47675        0.88126       -5.61512
C          0.17898       -0.51001       -5.34256
C         -1.23627       -0.60739       -4.84520
C         -1.55218       -0.27983       -3.51842
C         -2.87078       -0.34263       -3.06599
C         -3.89044       -0.73919       -3.93732
C         -3.58582       -1.06834       -5.26034
C         -2.26551       -0.99900       -5.71083
C          1.24968        2.08580       -7.54052
C          3.41663        0.55315        0.07710
H          0.16671       -2.08631       -1.59915
H          1.35833       -1.32109        0.29617
H          0.80388        0.01798       -0.73972
H          3.50342       -1.42151       -0.76985
H          4.58894       -1.74253       -3.07758
H          4.44006       -0.49599       -5.30203
H          3.65532        1.91444       -6.16398
H          2.43277        2.71126       -5.15946
H          1.99027        0.17271       -6.84760
H          0.87884       -0.91207       -4.58509
H          0.29900       -1.09550       -6.27023
H         -0.75693        0.03582       -2.84118
H         -3.10747       -0.08235       -2.03335
H         -4.92059       -0.79279       -3.58383
H         -4.37759       -1.37897       -5.94269
H         -2.03014       -1.25533       -6.74613
H          0.83542        3.01464       -7.12490
H          0.48241        1.62812       -8.17637
H          2.11712        2.33613       -8.16686
H          2.87176        1.50209       -0.00406
H          4.48503        0.75795       -0.06492
H          3.28025        0.17632        1.09898
