80

C         -0.17866       11.76595       -3.12202
C          1.30746       11.69794       -3.48226
C          2.07034       10.61449       -2.71188
C          3.57002       10.57990       -3.02072
C          4.33175        9.50041       -2.24527
C          5.84659        9.53760       -2.46988
C          6.61594        8.49823       -1.64813
C          8.13635        8.64655       -1.75421
C          8.91981        7.69619       -0.84269
C         10.41765        8.01486       -0.79959
C         11.20282        7.15299        0.19700
C         12.70743        7.45838        0.26298
C         13.00645        8.88209        0.73721
N         14.45299        9.12096        0.74554
C         15.10874       10.03556        1.47019
N         16.43059        9.90490        1.68994
C         17.28723       11.06033        2.01194
O         16.52084       12.09360        2.59938
C         15.36375       11.57338        3.20955
N         14.47033       11.02118        2.17278
C         13.54749       11.91974        1.47113
C         14.10187       12.31710        0.08139
O         15.15222       11.80507       -0.32445
N         13.36970       13.21013       -0.62791
C         13.88381       13.68973       -1.92430
C         14.47093       15.10610       -1.86366
C         15.66133       15.25860       -0.90891
C         16.25108       16.67085       -0.91869
C         12.17303       13.86287       -0.09851
N         14.72226       12.69264        3.91864
O         13.63185       12.04106        4.58713
O         15.67419       13.03874        4.92437
H         -0.69751       12.54594       -3.69612
H         -0.32022       11.99038       -2.05407
H         -0.68463       10.81079       -3.32733
H          1.77790       12.67748       -3.28948
H          1.41831       11.51921       -4.56520
H          1.62564        9.62810       -2.93250
H          1.92789       10.77190       -1.62778
H          4.00847       11.56765       -2.79115
H          3.72014       10.42918       -4.10423
H          3.94118        8.50475       -2.51863
H          4.12671        9.61765       -1.16624
H          6.22100       10.54535       -2.21367
H          6.06713        9.39946       -3.54285
H          6.31646        7.48196       -1.95696
H          6.32187        8.58963       -0.58745
H          8.40658        9.68743       -1.49737
H          8.45487        8.50463       -2.80151
H          8.76837        6.65223       -1.16525
H          8.51037        7.75903        0.18082
H         10.52628        9.08435       -0.54642
H         10.85286        7.89865       -1.80799
H         11.08290        6.09086       -0.06646
H         10.76546        7.26196        1.20447
H         13.15187        7.31522       -0.73838
H         13.20448        6.74486        0.93826
H         12.63261        9.03688        1.76026
H         12.51099        9.61094        0.07601
H         14.98942        8.66056        0.01459
H         16.88785        9.03012        1.45325
H         17.73003       11.48540        1.09891
H         18.07655       10.70298        2.69587
H         15.59694       10.76239        3.92339
H         13.42631       12.80694        2.10230
H         12.55638       11.45374        1.37726
H         13.05137       13.65027       -2.64367
H         14.64695       12.97041       -2.24394
H         13.68328       15.83285       -1.59969
H         14.78039       15.36728       -2.88864
H         16.43710       14.52365       -1.17788
H         15.34909       15.00063        0.11765
H         16.61638       16.94447       -1.91901
H         17.09650       16.75611       -0.22288
H         15.50222       17.42143       -0.62504
H         11.52484       13.15194        0.42810
H         11.59863       14.26684       -0.93999
H         12.41601       14.69699        0.57868
H         13.03460       12.77850        4.80669
H         15.72334       14.00849        4.85333
