81

C         13.68539       18.80413        8.54359
C         13.40587       17.30273        8.45240
C         12.95622       16.85487        7.05785
C         12.75761       15.34158        6.93851
C         12.31210       14.88421        5.54602
C         12.23573       13.36127        5.40900
C         11.80707       12.88028        4.01940
C         11.83149       11.35425        3.89148
C         11.39228       10.83111        2.51833
C         11.48280        9.30859        2.46043
O         10.92002        8.72041        1.26962
C         11.68098        8.81594        0.10198
N         12.88300        7.96616        0.14274
C         14.16973        8.36763        0.10066
N         15.12655        7.41853       -0.12401
C         16.61719        7.50438        0.19550
C         17.43968        7.59626       -1.14247
C         16.89663        8.59650       -2.17564
C         18.94365        7.82492       -0.91003
C         16.97365        8.62222        1.21371
O         17.04481        9.97134        0.73047
C         16.97434        6.20295        0.95196
C         14.70225        6.18543       -0.81327
C         14.13431        5.10026        0.11403
O         13.31073        5.34885        0.98465
O         14.62228        3.89682       -0.16928
C         14.12893        2.76265        0.64593
C         12.81091        2.20903        0.13342
C         12.85739        1.64901       -1.29232
C         11.51411        1.05991       -1.72748
N         14.46887        9.66827        0.21107
H         14.00362       19.09465        9.55405
H         12.78996       19.39271        8.29449
H         14.48131       19.10239        7.84491
H         12.63492       17.02240        9.18957
H         14.31312       16.74207        8.73527
H         13.70436       17.18131        6.31367
H         12.01866       17.37370        6.79165
H         12.01798       15.00685        7.68668
H         13.70286       14.83365        7.20033
H         13.01440       15.28052        4.79128
H         11.32960       15.32756        5.30868
H         11.53704       12.95915        6.16317
H         13.22293       12.92952        5.65221
H         12.47161       13.32376        3.25682
H         10.79335       13.25301        3.79432
H         11.17815       10.91412        4.66402
H         12.85026       10.99132        4.11693
H         12.01246       11.30208        1.73253
H         10.35390       11.13268        2.31000
H         10.89380        8.86996        3.27755
H         12.52526        8.96300        2.59586
H         11.97965        9.84651       -0.15279
H         11.02760        8.44210       -0.69845
H         12.74351        6.98823        0.44989
H         17.36468        6.59608       -1.60278
H         16.99907        9.64065       -1.85142
H         15.83864        8.42254       -2.41127
H         17.45885        8.49230       -3.11304
H         19.17678        8.83854       -0.54650
H         19.47838        7.71399       -1.86218
H         19.38476        7.10849       -0.20598
H         17.94262        8.35117        1.65328
H         16.24021        8.62632        2.03199
H         17.88308       10.09656        0.25794
H         16.80293        5.30627        0.34646
H         16.39065        6.11649        1.87878
H         18.03583        6.20528        1.22457
H         15.54328        5.78474       -1.38599
H         13.90862        6.43935       -1.53268
H         14.04719        3.11219        1.68277
H         14.94127        2.03029        0.55899
H         12.02910        2.97963        0.22310
H         12.52423        1.40803        0.83626
H         13.64115        0.87573       -1.35275
H         13.15796        2.44411       -1.99349
H         11.21027        0.23358       -1.06867
H         11.56313        0.66847       -2.75174
H         10.71729        1.81757       -1.69699
H         13.79639       10.28062        0.65917
H         15.44339       10.00100        0.15480
