62

C          0.66163       -0.31680       -0.97427
C          2.18741       -0.42691       -1.00157
C          2.73008       -1.56793       -0.13463
C          4.25711       -1.67891       -0.16440
C          4.81542       -2.81609        0.69699
C          6.34372       -2.90811        0.65262
C          6.92472       -4.04357        1.50111
C          8.45393       -4.11236        1.43842
C          9.05738       -5.25371        2.26264
C         10.58827       -5.29895        2.18764
C         11.19762       -6.47066        2.96897
C         12.73254       -6.47092        2.96870
N         13.27268       -6.61736        1.59700
C         13.64264       -7.89170        1.36996
N         13.98851       -8.36482        0.17103
N         13.65925       -8.60943        2.51291
C         13.44091       -7.67246        3.65957
C         12.72873       -8.31283        4.84915
C         12.73351       -7.41427        6.08182
F         14.05777       -7.13584        6.44674
C         14.42112       -9.85330        2.68609
C         13.53743      -11.10486        2.81347
C         12.69497      -11.46572        1.60513
Br        13.73934      -11.74578       -0.04318
Br        14.71584      -12.58785        3.33133
H          0.30685        0.51208       -1.60195
H          0.29304       -0.14208        0.04740
H          0.18905       -1.23935       -1.34294
H          2.63216        0.52464       -0.66442
H          2.52913       -0.56906       -2.04076
H          2.28654       -2.52227       -0.46950
H          2.39270       -1.42620        0.90720
H          4.69679       -0.72244        0.16911
H          4.59072       -1.81704       -1.20798
H          4.38101       -3.77493        0.36368
H          4.48660       -2.68024        1.74203
H          6.77449       -1.94839        0.98799
H          6.66893       -3.03585       -0.39492
H          6.50055       -5.00606        1.16533
H          6.60601       -3.91924        2.55048
H          8.87504       -3.15221        1.78379
H          8.76806       -4.22039        0.38511
H          8.64497       -6.21647        1.91400
H          8.74940       -5.15239        3.31727
H         11.00120       -4.34945        2.56987
H         10.87697       -5.35421        1.12181
H         10.82202       -7.42678        2.56621
H         10.85242       -6.41292        4.01285
H         13.10360       -5.52816        3.39495
H         12.91485       -6.03662        0.84401
H         13.93031       -7.76631       -0.64443
H         14.10560       -9.37247        0.00759
H         14.43993       -7.34271        3.99549
H         13.25061       -9.24215        5.12282
H         11.69061       -8.57963        4.60029
H         12.24676       -7.91879        6.92858
H         12.23195       -6.44941        5.90748
H         15.03089       -9.75236        3.59454
H         15.12128       -9.98032        1.84769
H         12.84599      -10.99757        3.66100
H         11.98219      -10.66493        1.36977
H         12.15346      -12.40268        1.76223
