60

C          3.25517       -0.21080       -1.16677
C          3.89902        1.17705       -1.10505
C          4.42598        1.52751        0.29539
C          5.00691        2.93198        0.33306
O          5.41076        3.29977        1.70470
C          6.68760        3.14395        2.03021
O          7.58892        2.73454        1.31898
C          6.93228        3.55363        3.48940
N          8.36400        3.40485        3.71721
C          9.08321        4.00021        4.68018
N          8.51050        4.28496        5.87418
C          8.69288        5.55983        6.59717
C          7.38719        6.32539        6.60154
O          6.94169        6.75978        5.30657
C          7.32116        7.75924        6.27409
N         10.37630        4.26884        4.46003
C         11.45149        4.34433        5.45579
C         12.67996        3.62890        4.89283
O         12.85344        4.12212        3.57609
C         14.11310        3.78575        2.97684
C         14.18550        4.41096        1.60098
O         14.19972        5.81770        1.74000
C         14.24999        6.50607        0.49259
C         14.15238        7.99467        0.79653
O         14.19932        8.68841       -0.43574
C         14.11577       10.09648       -0.26902
H          2.88789       -0.42952       -2.17803
H          2.39993       -0.28592       -0.47959
H          3.97193       -0.99950       -0.89574
H          3.16379        1.93685       -1.41822
H          4.72605        1.23374       -1.83171
H          5.19913        0.80170        0.59575
H          3.60852        1.45521        1.03070
H          4.25730        3.69026        0.07423
H          5.88159        3.03709       -0.32128
H          6.32995        2.89081        4.13193
H          6.60149        4.59049        3.65308
H          8.83894        2.99356        2.90498
H          7.62152        3.82116        6.04068
H          9.46554        6.13871        6.07815
H          9.03222        5.36695        7.62593
H          6.59343        5.90478        7.23327
H          6.49791        8.35922        6.67018
H          8.24161        8.30343        6.04222
H         10.71820        4.26712        3.49765
H         11.12062        3.87401        6.39084
H         11.70441        5.39689        5.65469
H         12.53281        2.53096        4.88959
H         13.55220        3.85781        5.53143
H         14.21661        2.68843        2.89014
H         14.93296        4.16988        3.60974
H         13.32089        4.08367        0.98787
H         15.10411        4.04438        1.09997
H         13.41062        6.19773       -0.15958
H         15.19306        6.28650       -0.04222
H         14.98737        8.29820        1.45854
H         13.20580        8.20337        1.33556
H         14.17831       10.54208       -1.26854
H         14.94567       10.48142        0.35182
H         13.15805       10.39172        0.19955
