68

C          1.05226       -0.28977       -1.70830
C          2.52409       -0.20682       -2.11734
C          3.22378        1.04880       -1.58453
C          4.69154        1.14647       -2.02151
C          5.36943        2.37108       -1.43070
O          6.78891        2.40416       -1.81892
C          7.17567        3.34652       -2.68456
O          6.46973        4.19722       -3.19313
C          8.68488        3.22997       -2.94252
C          9.12893        4.12247       -4.06430
C          8.85994        5.51091       -4.07942
C          9.29428        6.24430       -5.16090
C          9.98596        5.61609       -6.21441
N         10.17586        4.27703       -6.10145
N          9.76984        3.53022       -5.06589
C         10.90394        3.47303       -7.11939
C         12.38586        3.31884       -6.76739
C         13.11728        2.49582       -7.86153
N         14.53935        2.82129       -7.78285
C         15.29456        2.65884       -9.03404
C         16.75109        3.02942       -8.81690
O         17.26511        2.13740       -7.82151
O         12.97778        4.60026       -6.68078
C         10.47172        6.38560       -7.40579
C          9.49016        6.38380       -8.60741
C          8.16402        7.10111       -8.34954
C          7.27191        7.16155       -9.59392
C          5.87784        7.72873       -9.30458
N          5.14559        6.85461       -8.37498
H          0.58216       -1.20491       -2.09256
H          0.48126        0.56638       -2.09674
H          0.94151       -0.29352       -0.61397
H          2.60438       -0.22707       -3.21709
H          3.06088       -1.09939       -1.75554
H          3.16485        1.05569       -0.48241
H          2.67732        1.94448       -1.92629
H          4.74957        1.19350       -3.12108
H          5.23689        0.24228       -1.70756
H          5.38609        2.33321       -0.33321
H          4.89795        3.30505       -1.76089
H          8.95345        2.18772       -3.15358
H          9.20086        3.50812       -2.00849
H          8.31911        5.97348       -3.25602
H          9.12120        7.31750       -5.22633
H         10.78832        3.96421       -8.09059
H         10.40741        2.49580       -7.13656
H         12.45759        2.79256       -5.79372
H         12.75849        2.81871       -8.85246
H         12.88736        1.42008       -7.75720
H         15.00700        2.27422       -7.05633
H         14.86354        3.32593       -9.79603
H         15.24069        1.62344       -9.42084
H         16.82385        4.07964       -8.48112
H         17.29663        2.92610       -9.77077
H         18.18972        2.36470       -7.64265
H         13.90359        4.41844       -7.00471
H         11.45900        6.00826       -7.69855
H         10.61726        7.42420       -7.07394
H          9.29131        5.34855       -8.93242
H         10.02156        6.86675       -9.44242
H          8.36677        8.12952       -8.00183
H          7.59532        6.60253       -7.54805
H          7.16110        6.14709      -10.01682
H          7.75392        7.76963      -10.37627
H          5.35392        7.89669      -10.26376
H          5.97950        8.71554       -8.82555
H          4.81092        6.02306       -8.86504
H          4.31435        7.32655       -8.01919
