90

C         13.50996        7.41170        7.98730
C         13.37719        6.31787        6.92502
C         13.80063        6.77409        5.52461
C         13.66776        5.68581        4.45535
C         14.10261        6.13885        3.05831
C         13.95096        5.05706        1.98479
C         14.40373        5.50841        0.59310
C         14.22207        4.44379       -0.49275
C         14.70278        4.89824       -1.87406
C         14.48634        3.85985       -2.97881
C         14.98724        4.32490       -4.34930
C         14.72858        3.32133       -5.47684
C         15.24855        3.80046       -6.83572
C         14.93954        2.83286       -7.98343
C         15.36689        3.33500       -9.36836
C         16.89964        3.43858       -9.54501
C         17.28014        3.94460      -10.90932
C         17.42427        5.32578      -11.12235
C         17.72920        5.87669      -12.37064
C         17.88003        4.98384      -13.43132
N         17.74889        3.66296      -13.21423
C         17.46801        3.09423      -12.01080
C         17.42112        1.58800      -11.98414
C         16.07595        0.93814      -12.39161
C         15.53967        1.28252      -13.80278
C         16.55420        1.00298      -14.89832
O         17.52163        1.72345      -15.11325
O         16.40904       -0.10656      -15.63881
C         17.92975        7.35477      -12.55921
C         19.35339        7.68759      -13.03113
O         19.97483        6.99868      -13.81676
O         19.76997        8.82934      -12.47152
C         21.08546        9.34076      -12.88464
C         20.94528       10.35343      -14.01040
C         22.29400       10.99615      -14.36756
C         22.17670       12.02695      -15.49330
H         13.20955        7.04953        8.98013
H         12.87928        8.28055        7.74643
H         14.54734        7.77008        8.06443
H         12.33371        5.96149        6.89013
H         13.98325        5.44385        7.21838
H         14.84626        7.12827        5.55827
H         13.19686        7.65076        5.22958
H         12.62026        5.33833        4.41643
H         14.26476        4.80610        4.75436
H         15.15467        6.47297        3.09429
H         13.51580        7.02710        2.76408
H         12.89590        4.73402        1.93909
H         14.52636        4.16282        2.28293
H         15.46574        5.80853        0.63553
H         13.84647        6.41757        0.30565
H         13.15635        4.16064       -0.55143
H         14.76191        3.52562       -0.20143
H         15.77564        5.15466       -1.81936
H         14.18432        5.83349       -2.15018
H         13.41142        3.61671       -3.04578
H         14.99242        2.91788       -2.70397
H         16.06966        4.53618       -4.28870
H         14.50682        5.28606       -4.60447
H         13.64499        3.12380       -5.55011
H         15.19658        2.35351       -5.22577
H         16.33657        3.96863       -6.75698
H         14.80440        4.78501       -7.06782
H         13.85414        2.64451       -8.00925
H         15.41035        1.85412       -7.78479
H         14.91904        4.32486       -9.55953
H         14.96138        2.66608      -10.14400
H         17.35663        2.45798       -9.34668
H         17.31056        4.12681       -8.79331
H         17.30382        5.99489      -10.26662
H         18.12282        5.28910      -14.44685
H         17.80573        3.00041      -14.03355
H         17.65840        1.24738      -10.96904
H         18.22653        1.20755      -12.62975
H         15.29665        1.21782      -11.66965
H         16.20345       -0.15076      -12.30458
H         15.28139        2.34991      -13.86380
H         14.60776        0.72419      -13.97147
H         15.59572       -0.58557      -15.39869
H         17.70092        7.90464      -11.63959
H         17.25305        7.73810      -13.34081
H         21.71270        8.48733      -13.17309
H         21.48458        9.80087      -11.97181
H         20.22994       11.13342      -13.70421
H         20.52254        9.85579      -14.89815
H         23.00931       10.20988      -14.65935
H         22.71713       11.47715      -13.47002
H         21.79834       11.56815      -16.41818
H         23.15152       12.47790      -15.72104
H         21.48931       12.84103      -15.22077
