77

C          1.23896       -0.98588       -0.02699
C          2.12690       -0.01298       -0.77192
O          2.68570        0.91102        0.18940
C          3.62303        1.79363       -0.37978
C          4.26541        2.57355        0.72308
N          4.43931        3.90496        0.72920
C          5.06098        4.31493        1.89087
C          5.27697        3.17176        2.61600
N          4.78101        2.10664        1.88160
C          4.81118        0.70682        2.34185
C          5.79015       -0.16870        1.55157
O          5.97873       -1.30977        2.35430
C          6.63255       -2.39196        1.68213
C          6.89684       -3.46730        2.72785
O          7.29329       -4.62432        2.00909
C          7.64817       -5.74364        2.73433
C          7.95239       -6.88359        1.97897
C          8.32451       -8.05846        2.61804
C          8.40775       -8.15221        4.02163
C          8.11008       -6.99529        4.74861
C          7.72606       -5.79954        4.12718
C          8.77794       -9.48191        4.69114
C          7.67023      -10.56836        4.47191
C          6.16082      -10.37995        4.81751
C          5.90701       -9.95239        6.27592
C          5.45295       -9.38344        3.87594
C          5.51544      -11.76741        4.60534
C         10.06507      -10.03791        4.02907
C          9.11288       -9.30881        6.18696
C          5.37964        5.75098        2.16793
C          4.54366        6.73382        1.35076
O          3.97705        6.45435        0.30077
O          4.55122        7.93947        1.91062
C          3.84522        8.99471        1.19158
H          0.78739       -1.69344       -0.73475
H          0.42781       -0.45934        0.49223
H          1.81392       -1.56187        0.71025
H          1.55917        0.55488       -1.53119
H          2.95392       -0.53553       -1.28834
H          3.15807        2.50920       -1.08658
H          4.40332        1.24472       -0.94822
H          4.09354        4.61877        0.06599
H          5.72488        3.02631        3.59177
H          3.79467        0.30397        2.28400
H          5.12819        0.72436        3.39112
H          6.74248        0.37254        1.37630
H          5.36637       -0.44016        0.56495
H          7.57991       -2.05194        1.22687
H          5.98672       -2.79557        0.88133
H          5.97572       -3.65425        3.30959
H          7.68594       -3.13474        3.42505
H          7.88862       -6.82978        0.89177
H          8.53854       -8.93124        2.00049
H          8.16098       -7.00601        5.83649
H          7.49653       -4.93240        4.74517
H          8.01896      -11.46065        5.02053
H          7.70410      -10.85304        3.40624
H          6.21140       -8.91291        6.45784
H          6.43784      -10.59811        6.99047
H          4.83269      -10.01915        6.50431
H          5.78373       -8.34995        4.03329
H          4.36632       -9.41684        4.04753
H          5.63149       -9.63505        2.82017
H          5.94769      -12.51851        5.28322
H          5.66254      -12.12262        3.57426
H          4.43263      -11.72655        4.79420
H          9.92486      -10.25958        2.96294
H         10.37164      -10.97232        4.52080
H         10.88991       -9.31727        4.12004
H          8.28910       -8.90155        6.78205
H          9.98316       -8.64905        6.31603
H          9.37078      -10.28559        6.61910
H          6.43458        5.96116        1.91742
H          5.27406        5.97278        3.23735
H          4.00535        9.89590        1.78798
H          2.77841        8.75109        1.12685
H          4.26491        9.10788        0.18529
