123

C          1.57242       -0.11652       -2.65958
C          2.67010        0.65954       -3.39149
C          3.36310        1.70336       -2.50959
C          4.45464        2.50390       -3.22717
C          5.06301        3.59978       -2.34968
C          6.06404        4.51537       -3.06550
C          6.45126        5.70322       -2.18401
C          7.49135        6.65902       -2.78684
N          7.62676        7.86500       -1.94643
C          6.78524        8.91616       -2.03139
S          6.62925       10.11556       -0.87536
S          5.87116        8.96620       -3.59248
C          4.44895        9.97762       -3.11964
C          3.40750        9.09751       -2.42199
C          2.32275        9.92733       -1.73958
N          1.22222        9.15428       -1.12248
C          0.05959        9.75340       -0.83828
N         -0.27715       10.99623       -1.21933
N         -0.75590        8.97404       -0.10588
C         -0.20000        7.62699       -0.00126
C          1.30164        7.82627       -0.37618
C          1.77976        6.64871       -1.24960
C          1.09248        6.47603       -2.61046
C          1.82354        5.46285       -3.49866
C          1.21630        5.32934       -4.89858
C          1.94650        4.29179       -5.75650
C          1.39481        4.19942       -7.16918
O          2.14344        3.16979       -7.85379
C          1.83812        3.01099       -9.17953
O          1.00488        3.68330       -9.75635
C          2.66135        1.92544       -9.76691
C          2.53449        1.58522      -11.05434
C          2.10251        7.96588        0.94034
C          3.60899        8.21251        0.88913
O          4.04284        8.03886        2.24127
C          5.42101        8.23636        2.47223
C          6.29355        6.99045        2.27329
C          6.05015        5.72096        3.16613
C          4.78779        4.79591        2.96628
C          4.61288        4.16448        1.54640
F          3.81038        3.07272        1.65102
F          3.97945        5.06111        0.72459
F          4.96193        3.76612        3.84088
F          3.65364        5.45494        3.31629
F          7.12756        4.89967        2.96925
F          6.04604        6.12720        4.46419
F          6.25561        6.56536        0.95985
F          7.58231        7.37752        2.53194
C          8.61604        7.78283       -0.85752
C          9.98164        8.35237       -1.24907
C         10.96484        8.26803       -0.07721
C         12.37024        8.77411       -0.41466
C         13.33856        8.69155        0.77004
C         14.76305        9.14270        0.43427
C         15.73402        9.03740        1.61563
C         17.16070        9.46918        1.26765
H          1.09739       -0.85866       -3.31523
H          0.78205        0.55642       -2.29314
H          1.97598       -0.65364       -1.78866
H          2.24255        1.15783       -4.27842
H          3.42377       -0.04452       -3.78109
H          3.79282        1.20587       -1.62249
H          2.60325        2.40282       -2.11373
H          4.03336        2.96326       -4.13652
H          5.24732        1.82111       -3.57691
H          5.55571        3.13726       -1.47598
H          4.24821        4.21945       -1.93684
H          5.61857        4.88616       -4.00500
H          6.95845        3.93973       -3.35721
H          6.82313        5.34048       -1.21300
H          5.54395        6.28904       -1.96241
H          7.21899        6.94211       -3.81143
H          8.48173        6.18679       -2.84620
H          4.07383       10.42056       -4.05324
H          4.82991       10.77376       -2.45954
H          3.93913        8.49770       -1.67571
H          2.96673        8.40867       -3.15321
H          1.86239       10.57219       -2.50607
H          2.78845       10.58033       -0.98082
H          0.41233       11.62516       -1.60882
H         -1.15764       11.40001       -0.92702
H         -1.74758        9.16380       -0.01307
H         -0.70636        6.94307       -0.69736
H         -0.30264        7.23994        1.01935
H          1.63435        5.74172       -0.64084
H          2.86411        6.71304       -1.39808
H          1.03757        7.44473       -3.13454
H          0.04668        6.15034       -2.48383
H          1.82924        4.47780       -3.00320
H          2.88362        5.75825       -3.58908
H          1.24035        6.31206       -5.40171
H          0.15027        5.05626       -4.81463
H          1.87699        3.30100       -5.27998
H          3.01957        4.53879       -5.80954
H          1.49920        5.14779       -7.71900
H          0.32601        3.93136       -7.17797
H          3.36394        1.42426       -9.09974
H          1.82100        2.10489      -11.69590
H          3.13284        0.78783      -11.49377
H          1.96443        7.02057        1.48747
H          1.64001        8.75100        1.55999
H          3.87112        9.22996        0.54894
H          4.11346        7.49513        0.22428
H          5.53546        8.55594        3.51715
H          5.85512        9.00784        1.81082
H          5.57107        3.87193        1.09216
H          8.70470        6.72380       -0.57487
H          8.21296        8.32956        0.00210
H          9.85365        9.40070       -1.56208
H         10.38222        7.80673       -2.11986
H         11.03147        7.22210        0.27130
H         10.56091        8.84387        0.77340
H         12.30983        9.81756       -0.76953
H         12.77521        8.18977       -1.25934
H         13.36540        7.65280        1.14448
H         12.94739        9.30132        1.60346
H         14.74209       10.18533        0.07082
H         15.14743        8.53913       -0.40693
H         15.74290        7.99746        1.98428
H         15.35571        9.64954        2.45187
H         17.57869        8.85059        0.45943
H         17.83152        9.38126        2.13309
H         17.19018       10.51578        0.92964
