69

C         14.97344        3.98498        1.90200
C         14.04543        3.01150        2.63167
C         12.56177        3.23005        2.31193
C         11.64422        2.23605        3.03204
C         10.16826        2.46600        2.74911
O          9.41745        1.44985        3.42472
C          8.01430        1.61619        3.33199
C          7.35069        0.42629        4.02751
C          7.93048        0.16069        5.42056
C          7.31984       -1.09038        6.03832
N          7.88325       -1.31311        7.41972
C          7.78093       -0.11365        8.35243
C          8.39255        1.09563        7.61163
N          7.68271        1.26733        6.34631
C          8.39255        2.39436        8.42433
C          9.09719        2.30611        9.78325
C          9.25957        3.67020       10.46471
C          9.93967        3.57740       11.83173
C          6.35092        0.07196        8.87417
C          5.86057       -0.99650        9.87069
O          4.82125       -1.86829        9.34187
C          5.17305       -2.97439        8.66845
O          6.34064       -3.24368        8.37462
C          3.99668       -3.84692        8.32071
C          2.82155       -3.09746        7.66223
C          3.20227       -2.38216        6.36387
H         16.02582        3.80169        2.15688
H         14.74580        5.02890        2.16401
H         14.87530        3.88942        0.81074
H         14.19741        3.10154        3.72075
H         14.32134        1.97516        2.37307
H         12.40846        3.15145        1.22183
H         12.27982        4.26233        2.58443
H         11.80839        2.29704        4.12103
H         11.90080        1.20654        2.73379
H          9.95963        2.42123        1.66268
H          9.84877        3.46531        3.10648
H          7.68303        1.65784        2.27715
H          7.70615        2.57808        3.79455
H          7.50517       -0.47317        3.41194
H          6.26602        0.60498        4.09369
H          9.02221       -0.01471        5.29346
H          7.54154       -1.99373        5.45563
H          6.23125       -0.99564        6.14073
H          8.87667       -1.56056        7.32720
H          7.37509       -2.13773        7.86822
H          8.43496       -0.37034        9.19972
H          9.46142        0.82312        7.43213
H          7.95113        2.15385        5.91787
H          7.35879        2.75599        8.54581
H          8.90294        3.15336        7.80773
H         10.09327        1.84663        9.65380
H          8.54126        1.63770       10.46497
H          8.26936        4.14335       10.57329
H          9.84095        4.33418        9.80370
H          9.35610        2.95955       12.53028
H         10.05524        4.56941       12.28685
H         10.94203        3.13194       11.75151
H          5.62920        0.18434        8.05365
H          6.33848        1.03958        9.39245
H          5.36208       -0.51853       10.72033
H          6.68262       -1.61890       10.25413
H          3.65610       -4.31748        9.25798
H          4.37676       -4.64650        7.67155
H          2.39696       -2.38045        8.37926
H          2.03416       -3.83815        7.46216
H          3.92399       -1.56982        6.54547
H          2.32133       -1.92600        5.89471
H          3.64769       -3.07501        5.63488
