81

C          9.84118       15.11856        5.20436
C          9.38572       13.69534        4.87572
C         10.01900       12.63384        5.78034
C          9.58467       11.20324        5.44838
C         10.21587       10.14330        6.35630
C          9.80357        8.71018        6.00632
C         10.43721        7.64862        6.91143
C         10.03992        6.21625        6.54211
C         10.67992        5.14452        7.43143
C         10.27200        3.72348        7.02736
C         10.87115        2.60995        7.87090
O         12.30440        2.59758        7.71254
C         12.90310        1.45931        8.30142
C         14.42280        1.54820        8.33790
C         15.03490        2.84826        8.84041
C         16.51936        2.65268        8.52447
C         16.49645        2.08311        7.10804
N         15.18630        1.27328        6.97841
C         15.41247       -0.22986        6.79884
C         16.41174       -0.92180        7.71013
O         15.93040       -0.98412        9.04134
C         16.70438       -1.80953        9.92522
C         18.11808       -1.32053       10.19936
O         18.07491       -0.00742       10.73163
C         19.35544        0.43311       11.17852
C         14.34639        1.75115        5.80309
C         15.03449        2.00173        4.41162
N         16.17011        1.11955        4.14459
N         13.98548        1.67237        3.43662
N         15.54406        3.38393        4.41734
H          9.36941       15.85665        4.54140
H         10.93115       15.22271        5.09640
H          9.58490       15.38959        6.23938
H          9.62613       13.46483        3.82399
H          8.28753       13.63098        4.95588
H          9.76855       12.85740        6.83242
H         11.11890       12.70667        5.71007
H          9.83994       10.98122        4.39702
H          8.48489       11.13114        5.51358
H          9.94558       10.35482        7.40564
H         11.31583       10.22853        6.30444
H         10.07354        8.50117        4.95587
H          8.70427        8.62344        6.05781
H         10.15510        7.84718        7.95995
H         11.53691        7.74497        6.87060
H         10.31292        6.02468        5.48876
H          8.94133        6.11902        6.58873
H         10.39470        5.31957        8.48313
H         11.77752        5.24192        7.39207
H         10.52995        3.54434        5.96938
H          9.17584        3.62328        7.09157
H         10.46335        1.63108        7.55574
H         10.63013        2.74658        8.94250
H         12.56792        0.52803        7.79853
H         12.59196        1.36140        9.36060
H         14.77133        0.72592        8.97686
H         14.83638        2.97288        9.91235
H         14.61108        3.71863        8.31867
H         16.97162        1.94604        9.23572
H         17.09396        3.58678        8.55215
H         17.33520        1.42626        6.86194
H         16.44592        2.87611        6.35296
H         15.75679       -0.33786        5.76283
H         14.42208       -0.69315        6.90799
H         17.40497       -0.44105        7.65961
H         16.53358       -1.94151        7.29229
H         16.75621       -2.84086        9.52835
H         16.13046       -1.82284       10.86104
H         18.74834       -1.34960        9.28678
H         18.57462       -2.02772       10.92045
H         19.22596        1.44569       11.57827
H         20.08633        0.45930       10.35001
H         19.74793       -0.22225       11.97544
H         13.85020        2.67135        6.12914
H         13.57325        0.98672        5.66420
H         15.97425        0.51135        3.35195
H         17.02857        1.64253        3.98567
H         13.10065        2.13100        3.66614
H         14.25992        2.00715        2.50982
H         15.92624        3.61763        3.49774
H         14.79038        4.04821        4.60461
