51

C          6.63262       -4.97373       -1.14691
C          6.35514       -3.54746       -0.66623
C          7.05960       -3.20830        0.65261
C          6.80227       -1.77769        1.13700
C          7.53825       -1.43332        2.43650
C          7.31857        0.01164        2.89522
C          8.11872        0.37848        4.15143
C          7.96629        1.85357        4.54603
C          8.73901        2.26152        5.79603
N         10.21283        1.94509        5.69390
N         10.79186        2.70368        4.52598
O         11.01997        3.98791        5.05861
O         12.05458        2.07585        4.37383
C         10.98325        2.07272        6.99715
C         10.70875        0.89201        7.94429
C         10.95065       -0.49579        7.30387
C         12.37791       -0.79439        6.82829
C         11.54283        1.12019        9.21576
H          6.11694       -5.18715       -2.09256
H          6.29436       -5.71702       -0.40987
H          7.70794       -5.13793       -1.31154
H          5.26849       -3.40197       -0.54557
H          6.67143       -2.82833       -1.44080
H          8.14694       -3.36185        0.53188
H          6.73949       -3.92270        1.43149
H          5.71819       -1.62609        1.27841
H          7.10638       -1.06628        0.34908
H          8.62013       -1.60852        2.29503
H          7.22119       -2.12629        3.23500
H          6.24613        0.18490        3.08637
H          7.59740        0.70037        2.07916
H          9.18102        0.13743        3.94544
H          7.81359       -0.26917        4.99176
H          6.90786        2.07229        4.75611
H          8.24904        2.50026        3.70271
H          8.39664        1.70730        6.68030
H          8.67215        3.33471        6.01504
H         10.30312        0.96725        5.37000
H         10.73455        4.57775        4.33573
H         12.13964        1.99643        3.40479
H         10.69602        3.03058        7.44394
H         12.04347        2.11493        6.72027
H          9.64787        0.92831        8.24529
H         10.23839       -0.65911        6.47074
H         10.65165       -1.24702        8.05057
H         12.72892       -0.09560        6.05477
H         12.42867       -1.80280        6.39880
H         13.09756       -0.75959        7.65620
H         12.61985        1.14962        9.00110
H         11.36554        0.30975        9.93441
H         11.27368        2.06494        9.70706
