110

C          1.99742        3.22435        5.00921
C          2.93872        4.04687        4.12588
C          2.45836        4.14463        2.67373
C          3.39475        4.99810        1.80762
N          2.96164        5.09931        0.40484
C          2.16082        6.08338       -0.05508
S          1.65925        6.21346       -1.65204
S          1.69077        7.26404        1.22117
C          0.57079        8.35372        0.30959
C         -0.80619        7.71694        0.08497
C         -1.56044        8.38430       -1.07565
N         -2.48716        7.43184       -1.71840
C         -2.14996        6.64461       -2.80434
C         -3.21838        5.83947       -3.06440
N         -4.19062        6.14150       -2.12518
C         -3.72817        7.10872       -1.29475
C         -4.46413        7.73895       -0.17021
C         -5.42252        8.86003       -0.63463
C         -6.02099        9.58074        0.57804
S         -6.70146       11.20498        0.17966
C         -5.21115       12.21331        0.10874
S         -3.68004       11.60202        0.42984
N         -5.46249       13.50094       -0.21281
C         -6.83008       14.00602       -0.42584
C         -7.55563       14.46982        0.84728
C         -9.04480       14.72537        0.59135
C         -9.78715       15.21167        1.83811
C         -4.35982       14.47001       -0.33780
C         -4.01886       15.21402        0.95988
C         -2.81387       16.14300        0.77756
C         -2.47958       16.93945        2.04145
C         -5.50071        5.48635       -2.02484
C         -5.38385        4.14333       -1.28885
C         -6.70068        3.36337       -1.16308
C         -7.52122        3.51432        0.17800
C         -8.09676        4.91288        0.63368
C         -9.15728        5.71557       -0.21760
C        -10.56234        5.09511       -0.59075
C        -11.51600        4.63690        0.57582
F        -11.66105        5.61779        1.48385
F        -12.71416        4.34652        0.04813
F        -11.03496        3.54076        1.18558
F        -11.20852        6.07366       -1.27575
F        -10.36633        4.04224       -1.42002
F         -9.37560        6.86437        0.47278
F         -8.56688        6.05379       -1.40330
F         -8.61126        4.73960        1.87043
F         -7.01852        5.76534        0.74790
F         -8.54348        2.63158        0.14417
F         -6.66890        3.15124        1.18425
F         -7.53300        3.62872       -2.21895
F         -6.40372        2.02776       -1.21401
C          3.44738        4.03925       -0.49404
C          4.77662        4.38750       -1.17288
C          5.25699        3.26178       -2.09532
C          6.57907        3.58725       -2.79406
H          2.36268        3.17477        6.04324
H          1.90225        2.19221        4.64185
H          0.98856        3.66204        5.03402
H          3.94893        3.60530        4.14931
H          3.04180        5.06278        4.54272
H          1.44692        4.58021        2.64335
H          2.37851        3.13458        2.23883
H          4.40841        4.56985        1.80075
H          3.49568        6.01081        2.22615
H          1.05578        8.58362       -0.65041
H          0.52051        9.26954        0.91554
H         -1.40049        7.74628        1.01011
H         -0.65027        6.66350       -0.18337
H         -0.85421        8.68581       -1.85967
H         -2.12853        9.27553       -0.77361
H         -1.17792        6.71708       -3.27718
H         -3.37234        5.09150       -3.83271
H         -3.73338        8.17897        0.52191
H         -5.00311        6.96821        0.39765
H         -6.22193        8.45971       -1.27608
H         -4.84751        9.58037       -1.23144
H         -5.25468        9.73942        1.35203
H         -6.86312        9.02277        1.01347
H         -7.41327       13.21634       -0.92641
H         -6.75423       14.83420       -1.14473
H         -7.07873       15.38377        1.23260
H         -7.44163       13.70376        1.63028
H         -9.51030       13.79587        0.22241
H         -9.15914       15.46474       -0.21919
H         -9.71555       14.48035        2.65639
H        -10.85291       15.37454        1.63031
H         -9.37185       16.16120        2.20577
H         -4.65572       15.18344       -1.12167
H         -3.47944       13.91464       -0.68863
H         -3.80829       14.47604        1.74972
H         -4.88852       15.80064        1.29508
H         -3.00951       16.83957       -0.05547
H         -1.93886       15.54398        0.47424
H         -3.32054       17.58105        2.34353
H         -1.60776       17.58852        1.88502
H         -2.25136       16.27286        2.88606
H         -5.87965        5.34322       -3.04356
H         -6.18039        6.17689       -1.52019
H         -4.95144        4.28026       -0.28887
H         -4.70508        3.48025       -1.84344
H          2.67081        3.86167       -1.25001
H          3.55110        3.12746        0.11402
H          5.54261        4.59420       -0.40649
H          4.64569        5.31558       -1.75038
H          4.47957        3.06040       -2.85133
H          5.36484        2.33016       -1.51417
H          6.49085        4.49247       -3.41252
H          6.89675        2.76584       -3.45040
H          7.38465        3.76076       -2.06538
