85

C          0.52629       -0.09995        0.43362
C          2.05123        0.03397        0.46125
C          2.75126       -0.79185       -0.62345
C          4.27989       -0.69190       -0.59170
C          4.96505       -1.51502       -1.68683
C          6.49567       -1.48358       -1.62914
C          7.15735       -2.30325       -2.74137
C          8.68288       -2.39789       -2.63214
C          9.31205       -3.21133       -3.76785
C         10.82229       -3.42909       -3.63191
C         11.40691       -4.25805       -4.78001
C         12.89254       -4.59826       -4.62539
C         13.42122       -5.47375       -5.76625
C         14.88195       -5.90601       -5.60539
C         15.33630       -6.88119       -6.69695
C         16.77573       -7.37942       -6.51698
C         17.26271       -8.34365       -7.61047
C         16.46865       -9.65095       -7.64234
N         17.00437      -10.56130       -8.65998
C         16.42885      -11.72670       -9.01663
N         17.01499      -12.51135       -9.94252
C         16.42160      -13.76852      -10.41235
C         15.54957      -14.37297       -9.31718
C         14.49714      -13.37583       -8.79294
N         15.28088      -12.11206       -8.45501
C         13.47483      -12.99302       -9.89572
C         12.54058      -14.12322      -10.33082
N         13.83573      -13.87522       -7.60583
C         14.68104      -14.44434       -6.55245
C         12.79169      -13.01700       -7.04441
H          0.05257        0.50123        1.22187
H          0.21487       -1.14513        0.58058
H          0.11367        0.23297       -0.53068
H          2.43012       -0.27264        1.45110
H          2.33133        1.09493        0.34744
H          2.38442       -0.47414       -1.61578
H          2.45527       -1.85117       -0.52029
H          4.64564       -1.02247        0.39665
H          4.58120        0.36634       -0.68559
H          4.62857       -1.15675       -2.67591
H          4.62535       -2.56388       -1.61726
H          6.82955       -1.86302       -0.64703
H          6.84727       -0.43825       -1.68338
H          6.88579       -1.87280       -3.72154
H          6.73569       -3.32439       -2.73629
H          8.94909       -2.85606       -1.66319
H          9.11939       -1.38395       -2.61684
H          9.09931       -2.71574       -4.73144
H          8.81368       -4.19580       -3.82196
H         11.03205       -3.93459       -2.67273
H         11.33695       -2.45410       -3.57848
H         11.25104       -3.72230       -5.73288
H         10.83371       -5.19850       -4.86860
H         13.04764       -5.12036       -3.66483
H         13.48502       -3.66922       -4.56381
H         13.30047       -4.93983       -6.72490
H         12.78753       -6.37582       -5.84367
H         15.01513       -6.38135       -4.61766
H         15.53793       -5.01879       -5.60490
H         15.23692       -6.40046       -7.68614
H         14.63459       -7.73426       -6.70350
H         16.87993       -7.86457       -5.53140
H         17.45896       -6.51679       -6.49796
H         18.32686       -8.57797       -7.43879
H         17.19308       -7.85702       -8.59746
H         15.41536       -9.43634       -7.88451
H         16.50196      -10.13201       -6.64809
H         17.92922      -10.35400       -9.02323
H         17.82643      -12.14927      -10.42949
H         17.24187      -14.45719      -10.65290
H         15.85522      -13.59346      -11.34066
H         16.20286      -14.68896       -8.49576
H         15.04399      -15.26777       -9.69815
H         14.87524      -11.50097       -7.75389
H         14.03995      -12.61581      -10.76076
H         12.89226      -12.12782       -9.54953
H         13.08582      -14.95621      -10.79480
H         11.82566      -13.75071      -11.07536
H         11.97270      -14.53118       -9.48570
H         15.20140      -15.34522       -6.89485
H         14.03110      -14.75000       -5.72480
H         15.42907      -13.73456       -6.14358
H         12.04717      -12.74233       -7.79774
H         13.17056      -12.08304       -6.57233
H         12.27084      -13.57436       -6.25709
