74

N          7.47497       -2.34341        4.76825
C          6.57398       -1.32036        5.35854
C          6.54559       -0.03936        4.50874
C          6.15187       -0.22841        3.03430
C          4.80294       -0.94301        2.81186
N          4.50163       -1.22076        1.41938
C          3.89887       -0.10763        0.67480
C          3.40468       -0.49052       -0.71928
C          2.38483       -1.64842       -0.72178
C          1.95678       -2.00030       -2.06774
C          1.62165       -2.26587       -3.19952
C          5.55587       -2.01842        0.81135
C          6.97953       -1.42853        0.91045
N          7.22984       -1.05154        2.35334
C          7.26586       -0.27698       -0.06380
C          8.70946        0.26880       -0.02853
C          8.87013        1.51098        0.85981
S         10.59094        2.03164        1.08097
C         11.16996        0.99285        2.40797
S         10.18711       -0.11964        3.22236
N         12.46329        1.18574        2.72565
C         13.30448        2.17740        2.02824
C         14.06363        1.63364        0.81012
C         14.78307        2.75406        0.05069
C         15.55899        2.24143       -1.16463
C         13.10692        0.39822        3.79617
C         13.63793       -0.96797        3.34362
C         14.26008       -1.74395        4.50977
C         14.78572       -3.12032        4.09477
H          7.27859       -3.26284        5.16560
H          8.44867       -2.13539        5.00386
H          6.85643       -1.05291        6.38978
H          5.56994       -1.76197        5.41769
H          7.52890        0.45762        4.55321
H          5.83046        0.66368        4.96150
H          6.13556        0.75321        2.53794
H          4.00111       -0.32908        3.24652
H          4.80798       -1.90255        3.35791
H          4.56274        0.77765        0.57607
H          3.04014        0.22700        1.28011
H          4.24672       -0.74318       -1.38277
H          2.94080        0.40119       -1.16513
H          1.50650       -1.36530       -0.11670
H          2.81256       -2.53485       -0.22632
H          1.30788       -2.50670       -4.19321
H          5.32765       -2.21085       -0.24451
H          5.55828       -3.00213        1.31438
H          7.70660       -2.23246        0.70838
H          8.16500       -0.56840        2.45117
H          7.33881       -1.89544        2.99179
H          6.54674        0.54489        0.07164
H          7.05676       -0.68071       -1.06521
H          9.02361        0.53485       -1.04704
H          9.40203       -0.51797        0.30815
H          8.44731        1.39336        1.86724
H          8.39235        2.38859        0.39849
H         14.01070        2.57089        2.77324
H         12.66745        3.02520        1.73335
H         13.35700        1.12123        0.13825
H         14.79374        0.87720        1.13689
H         15.47087        3.27925        0.73450
H         14.04256        3.50539       -0.27158
H         16.33269        1.51749       -0.87062
H         16.05891        3.06462       -1.69168
H         14.89239        1.74290       -1.88351
H         12.36955        0.26602        4.59995
H         13.92669        1.01777        4.18613
H         14.38575       -0.83329        2.54696
H         12.80974       -1.54817        2.90802
H         13.50964       -1.86073        5.30963
H         15.08082       -1.15210        4.94870
H         13.98033       -3.75112        3.69073
H         15.22806       -3.65075        4.94834
H         15.56137       -3.03674        3.31958
