52

F          4.13125       -0.68645       -2.88014
C          4.29259       -1.23381       -1.58937
C          5.02857       -0.26196       -0.68288
C          4.30717        1.07835       -0.45052
C          4.42774        2.05965       -1.62641
O          5.80056        2.31575       -2.01018
C          6.36227        3.23732       -1.12315
N          5.15322        4.10637       -0.67852
C          3.93552        3.49811       -1.36841
C          2.63917        3.73806       -0.60014
C          2.36290        5.20711       -0.20584
P          2.65723        6.45004       -1.51232
O          2.21841        6.03092       -2.86249
O          2.07828        7.82596       -0.95428
C          0.85464        8.43207       -1.51004
C         -0.37877        7.96196       -0.76676
O          4.26955        6.67800       -1.32483
C          4.93147        7.78519       -2.04663
C          5.39086        7.37117       -3.43006
C          7.45343        4.05934       -1.79598
C          8.61133        3.19417       -2.22141
C          9.84480        3.30855       -1.72482
H          4.85439       -2.17241       -1.70151
H          3.28281       -1.46200       -1.21135
H          6.03905       -0.08201       -1.07958
H          5.15850       -0.76832        0.28641
H          4.69627        1.53306        0.47732
H          3.23567        0.89679       -0.26720
H          3.95010        1.64207       -2.52035
H          6.73465        2.76033       -0.19816
H          5.20252        5.11430       -0.95123
H          5.05588        4.06994        0.34227
H          3.88257        4.01140       -2.33912
H          2.60587        3.11917        0.30973
H          1.83040        3.38196       -1.25399
H          2.92754        5.51419        0.68792
H          1.30242        5.31156        0.06366
H          0.80877        8.19303       -2.58076
H          1.01690        9.50997       -1.38830
H         -0.57270        6.89379       -0.93741
H         -1.25535        8.51597       -1.13102
H         -0.28784        8.14453        0.31200
H          5.77041        8.06701       -1.39723
H          4.23047        8.63035       -2.07891
H          6.10344        6.53582       -3.38684
H          5.90590        8.21809       -3.90489
H          4.54530        7.08157       -4.06571
H          7.80152        4.83282       -1.09306
H          7.00677        4.56001       -2.67226
H          8.39257        2.44450       -2.98579
H         10.09834        4.05443       -0.96810
H         10.65400        2.66498       -2.06852
