73

C          0.42844       -0.56906       -0.61958
C          1.91761       -0.35449       -0.33952
C          2.51028       -1.39162        0.62101
C          4.00038       -1.17816        0.90396
C          4.60593       -2.23511        1.83478
C          6.09772       -2.00088        2.10499
C          6.71593       -3.09565        2.95579
O          8.11536       -2.77268        3.15324
C          8.83193       -3.78857        3.79187
N         10.24897       -3.43412        3.68165
N         11.03753       -4.09369        2.78844
C         12.18796       -3.47240        2.85722
N         12.14659       -2.43232        3.76179
C         10.89238       -2.41585        4.27746
C         10.26385       -1.44871        5.23016
C         10.98301       -1.46860        6.59503
O         11.97625       -2.13071        6.83021
O         10.33340       -0.68308        7.45660
C         10.88371       -0.58375        8.82103
C         11.90590        0.53187        8.91197
C         10.11644       -0.03733        4.61114
C         13.29461       -1.55300        4.08011
C         14.49731       -2.33564        4.59257
O         14.98086       -3.12925        3.52654
C         16.19630       -3.83274        3.82570
C         16.76899       -4.38190        2.53696
O         17.22074       -3.29742        1.75029
C         17.75373       -3.69609        0.48925
C         18.20536       -2.43268       -0.22997
O         18.66871       -2.81473       -1.51108
C         19.15783       -1.71358       -2.26365
H          0.03748        0.18800       -1.31265
H         -0.16537       -0.51067        0.30468
H          0.24388       -1.55624       -1.06865
H          2.07308        0.65554        0.07641
H          2.47908       -0.37887       -1.28888
H          2.35872       -2.40237        0.20264
H          1.94925       -1.37203        1.57193
H          4.14945       -0.17606        1.34289
H          4.55623       -1.17607       -0.04987
H          4.46435       -3.23421        1.38766
H          4.05223       -2.24633        2.78923
H          6.24012       -1.03180        2.61032
H          6.64760       -1.94660        1.15185
H          6.64335       -4.07773        2.45356
H          6.21623       -3.17578        3.93910
H          8.73280       -4.76918        3.29772
H          8.57377       -3.89227        4.86364
H         13.08666       -3.73202        2.30840
H          9.24427       -1.81561        5.42118
H         11.30724       -1.55967        9.08901
H          9.99793       -0.38227        9.43427
H         12.79732        0.31090        8.31061
H         12.22669        0.64126        9.95704
H         11.47922        1.48996        8.58765
H         11.08728        0.42528        4.39459
H          9.57730        0.60762        5.31322
H          9.54109       -0.10247        3.67990
H         12.97349       -0.83331        4.83601
H         13.55994       -1.01722        3.15809
H         14.21165       -2.94353        5.47072
H         15.25692       -1.59931        4.91800
H         15.99751       -4.65694        4.53491
H         16.92211       -3.13817        4.28492
H         15.99803       -4.97025        1.99805
H         17.59873       -5.07385        2.78434
H         16.98681       -4.21860       -0.11384
H         18.60799       -4.38563        0.62309
H         19.00493       -1.93280        0.35179
H         17.35603       -1.72390       -0.30707
H         19.48478       -2.10758       -3.23282
H         20.01523       -1.22852       -1.76173
H         18.37052       -0.95451       -2.42900
