51

C          7.85873       -0.42594        0.07503
C          6.88088       -1.47172        0.61887
C          5.40351       -1.05587        0.55991
C          4.83740       -0.79983       -0.84389
N          4.97567       -1.94876       -1.75538
N          6.05843       -2.00962       -2.59225
C          5.92664       -3.14034       -3.25986
N          4.78280       -3.78244       -2.84144
C          4.18871       -3.02090       -1.89851
C          2.93337       -3.37707       -1.16981
C          1.98361       -4.15616       -2.09909
O          2.37300       -4.94305       -2.95088
O          0.71880       -3.90113       -1.78991
C         -0.32398       -4.64761       -2.52787
C         -0.71499       -3.91542       -3.79532
C          3.23018       -4.26621        0.07047
C          6.84629       -3.63202       -4.31755
C          6.18191       -3.77228       -5.71516
C          5.48729       -2.47310       -6.18165
C          6.38700       -1.24162       -6.33622
C          7.22054       -4.29738       -6.71463
H          8.89647       -0.74702        0.23140
H          7.73341        0.54000        0.58567
H          7.73289       -0.25932       -1.00361
H          7.11765       -1.68298        1.67229
H          7.02249       -2.42826        0.08841
H          5.25816       -0.11649        1.11728
H          4.77990       -1.80553        1.07027
H          5.36134        0.01957       -1.34961
H          3.77111       -0.54074       -0.79809
H          4.29800       -4.60998       -3.21333
H          2.43220       -2.45552       -0.84371
H         -1.14738       -4.69916       -1.80680
H          0.06024       -5.65533       -2.72780
H         -1.04649       -2.89214       -3.57704
H         -1.55137       -4.44713       -4.26961
H          0.11315       -3.88308       -4.51449
H          3.68256       -5.21796       -0.23525
H          2.29435       -4.47402        0.60248
H          3.91545       -3.75684        0.75716
H          7.25407       -4.60842       -4.01026
H          7.69181       -2.93198       -4.35633
H          5.39183       -4.54097       -5.62977
H          4.66491       -2.23437       -5.48447
H          4.99760       -2.69000       -7.14363
H          6.83838       -0.92963       -5.38350
H          5.80391       -0.39016       -6.71011
H          7.20112       -1.41377       -7.05294
H          8.07572       -3.61396       -6.81249
H          6.77322       -4.41692       -7.71037
H          7.61313       -5.27597       -6.40543
