44

N          2.77093       -1.13747        0.47317
C          2.19939        0.07976       -0.11864
C          2.86508        1.33202        0.46908
C          4.38100        1.33839        0.22220
C          5.03214        2.51404        0.93061
N          6.51169        2.66983        0.70773
C          7.21408        1.64155        0.17806
C          8.58811        1.69146       -0.02779
C          9.32081        0.50399       -0.60214
C         10.07569       -0.34176        0.44986
C          9.18647       -1.15771        1.37057
F          8.37559       -0.30918        2.15991
C          9.23962        2.87403        0.34015
C          8.51149        3.92864        0.88247
C          7.13524        3.83447        1.06957
C          6.34835        4.99135        1.61030
C          5.60726        5.75797        0.49905
O          5.46055        5.34312       -0.63297
O          5.14423        6.91895        0.97626
C          4.39161        7.73596        0.03278
H          2.51756       -1.95789       -0.07652
H          2.39289       -1.29433        1.40898
H          1.10518        0.17139        0.00849
H          2.38698        0.04494       -1.20322
H          2.66571        1.36801        1.55450
H          2.39609        2.22893        0.03469
H          4.57095        1.40152       -0.86218
H          4.76740        0.37138        0.57811
H          4.89100        2.43483        2.01979
H          4.57618        3.44702        0.58284
H          6.63729        0.75531       -0.06807
H         10.04652        0.87117       -1.34268
H          8.61294       -0.13668       -1.14968
H         10.73627        0.30076        1.05309
H         10.73099       -1.04954       -0.08170
H          9.78470       -1.76765        2.06265
H          8.50586       -1.81689        0.80788
H         10.31710        2.97466        0.19877
H          9.00790        4.85640        1.16425
H          7.02947        5.68485        2.11935
H          5.61005        4.68354        2.36558
H          5.04520        8.06011       -0.78574
H          4.04224        8.59140        0.61621
H          3.54816        7.16421       -0.37233
