45

C          0.99557        1.03893       -0.48229
C          2.32638        0.43354       -0.02809
C          2.95522       -0.47085       -1.09564
C          4.29045       -1.05384       -0.66589
O          4.77541       -1.89429       -1.72873
C          6.07064       -2.41472       -1.48518
C          6.49500       -3.13869       -2.74191
C          6.54558       -4.52350       -2.73238
C          6.86896       -5.25605       -3.89500
C          6.91672       -6.66822       -3.93506
C          7.21488       -7.33636       -5.10327
N          7.46695       -6.58805       -6.23414
C          7.44095       -5.25043       -6.26500
C          7.14367       -4.52132       -5.10506
C          7.09923       -3.10832       -5.09685
C          6.78497       -2.40446       -3.94516
C          6.80132       -0.89720       -3.97331
C          8.19623       -0.33058       -3.63816
C          7.26830       -8.84407       -5.17340
O          7.04862       -9.47134       -4.15463
C          7.58732       -9.50155       -6.49705
H          0.56022        1.67502        0.29944
H          0.26077        0.25726       -0.72338
H          1.12663        1.65936       -1.38070
H          2.17389       -0.14293        0.89925
H          3.02912        1.24369        0.22860
H          3.10166        0.09790       -2.02859
H          2.26891       -1.29809       -1.33761
H          4.18718       -1.65220        0.25942
H          5.02839       -0.25231       -0.46548
H          6.07137       -3.11225       -0.62637
H          6.78618       -1.60275       -1.24443
H          6.31510       -5.06516       -1.81336
H          6.71797       -7.27278       -3.04920
H          7.68379       -7.09000       -7.09566
H          7.65745       -4.77592       -7.22179
H          7.31397       -2.56443       -6.01912
H          6.04743       -0.50640       -3.27874
H          6.50789       -0.56177       -4.97868
H          8.53274       -0.63682       -2.63849
H          8.17377        0.76626       -3.66617
H          8.94803       -0.67319       -4.36223
H          8.57670       -9.19534       -6.87399
H          6.83364       -9.25461       -7.26237
H          7.59334      -10.58646       -6.35532
