42

C          0.76454        0.81780        0.42303
C          2.26964        0.59016        0.26585
C          2.86060        1.32285       -0.94581
C          4.37362        1.10526       -1.09561
C          4.91922        1.83459       -2.31796
N          6.43035        1.75624       -2.42455
C          6.91991        0.40009       -2.87776
C          8.30128        0.11054       -2.28206
O          8.16556        0.49908       -0.90260
C          8.68169       -1.35376       -2.45506
C          7.02606        2.88251       -3.24472
C          6.94665        4.25978       -2.57405
C          7.51052        4.25230       -1.14571
C          7.68977        5.26307       -3.46975
H          0.37224        0.27846        1.29494
H          0.21090        0.46649       -0.45964
H          0.53176        1.88376        0.55998
H          2.47332       -0.48943        0.17134
H          2.79218        0.92067        1.17894
H          2.65315        2.40332       -0.85759
H          2.34762        0.98594       -1.86313
H          4.58067        0.02489       -1.15515
H          4.89027        1.47299       -0.19202
H          4.66751        2.90108       -2.26520
H          4.51344        1.43999       -3.26099
H          6.81780        1.84123       -1.46412
H          6.92801        0.37729       -3.97427
H          6.20182       -0.34165       -2.50704
H          9.06319        0.74736       -2.77007
H          8.99479        0.32615       -0.42898
H          7.95704       -2.00889       -1.95304
H          9.67603       -1.54312       -2.02849
H          8.72818       -1.62376       -3.51952
H          6.51119        2.87076       -4.21598
H          8.07900        2.61586       -3.41391
H          5.89085        4.57603       -2.53166
H          8.55149        3.89531       -1.12354
H          6.92270        3.63353       -0.44916
H          7.50248        5.26882       -0.73212
H          8.76243        5.02547       -3.52964
H          7.59700        6.27734       -3.06204
H          7.28585        5.27754       -4.49139
