75

C         13.03558        7.53931        1.11671
C         13.45255        6.14151        1.57878
C         12.30703        5.12405        1.54138
C         12.71057        3.73179        2.03601
C         11.55801        2.72141        2.04191
C         11.93950        1.38079        2.67836
C         10.80602        0.34939        2.64905
C         11.13836       -0.95970        3.34312
O         11.11575       -0.74873        4.78371
C         11.64638       -1.83733        5.47691
N         11.28729       -1.68910        6.89542
N         10.48371       -2.62014        7.48425
C         10.36073       -2.20226        8.71936
N         11.05310       -1.03212        8.92993
C         11.64115       -0.71022        7.74806
C         12.43904        0.50611        7.44508
C         11.54090        1.74643        7.21634
P         12.56018        3.23318        6.90531
O         13.50044        3.07845        5.77079
O         11.51489        4.44193        6.80124
C         11.15423        5.02809        5.50351
C         10.38791        6.30629        5.76474
O         13.19043        3.42140        8.36729
C         14.21161        4.45426        8.58653
C         14.87912        4.18468        9.91745
C         11.13402       -0.30939       10.21942
C         11.84618       -1.11995       11.31996
C         13.34231       -1.35823       11.02421
C         14.24825       -0.12495       11.11363
C         11.59906       -0.43424       12.67052
H         13.87547        8.24580        1.15851
H         12.22925        7.94412        1.74695
H         12.66634        7.52259        0.08081
H         13.85495        6.19477        2.60499
H         14.28162        5.77573        0.95057
H         11.91379        5.05433        0.51222
H         11.46832        5.50188        2.15496
H         13.12776        3.80836        3.05470
H         13.52906        3.34381        1.40544
H         11.20224        2.55678        1.01005
H         10.69825        3.14928        2.58911
H         12.26666        1.55932        3.71553
H         12.81468        0.96382        2.15064
H         10.54769        0.10874        1.60485
H          9.88775        0.76128        3.10029
H         12.14219       -1.31457        3.04495
H         10.40387       -1.74803        3.10283
H         12.74998       -1.88604        5.39989
H         11.21423       -2.80573        5.17364
H          9.78285       -2.70914        9.48521
H         13.04460        0.32796        6.54661
H         13.13625        0.69112        8.27485
H         10.88769        1.94628        8.07708
H         10.90696        1.59068        6.33228
H         10.54086        4.29770        4.95284
H         12.07747        5.20511        4.93593
H          9.47317        6.11251        6.34004
H         10.10068        6.75880        4.80561
H         11.00283        7.03047        6.31446
H         13.70659        5.43110        8.57773
H         14.92914        4.41406        7.75430
H         14.14942        4.20251       10.73779
H         15.62942        4.96296       10.11308
H         15.39169        3.21327        9.91576
H         10.10146       -0.08023       10.51877
H         11.64315        0.64408       10.03185
H         11.35988       -2.11060       11.35843
H         13.44729       -1.82707       10.03067
H         13.70135       -2.11574       11.73734
H         13.92593        0.69635       10.45514
H         15.27373       -0.38684       10.82272
H         14.29251        0.27514       12.13501
H         11.97916        0.59666       12.68395
H         12.10450       -0.98561       13.47413
H         10.52765       -0.40048       12.91136
