83

C         -0.14484       -7.86523      -10.15303
C          1.25044       -7.24316      -10.05229
C          2.12054       -7.87520       -8.95955
C          3.52599       -7.27235       -8.86343
C          4.38353       -7.88909       -7.75307
C          5.80433       -7.31926       -7.67860
C          6.64631       -7.93072       -6.55383
C          8.09105       -7.42008       -6.50429
C          8.90185       -8.04740       -5.36269
C         10.40236       -7.71788       -5.36151
C         10.73692       -6.23953       -5.10902
C         12.22869       -5.96945       -4.85313
C         13.10753       -6.23113       -6.08833
C         14.60700       -6.20584       -5.80416
N         15.36855       -6.77575       -7.01938
C         16.67987       -5.96072       -7.11527
O         16.73992       -5.28522       -5.91809
C         15.38213       -4.87285       -5.54248
C         14.96696       -3.67167       -6.42204
C         13.76051       -2.82064       -5.99523
C         13.61784       -1.57463       -6.87760
C         12.42065       -0.69629       -6.50139
C         12.33644        0.59170       -7.32700
C         11.13537        1.47380       -6.97304
C         11.08784        2.78396       -7.76766
C          9.87956        3.65846       -7.42552
C         15.46557       -4.47621       -4.04903
C         16.24977       -5.38227       -3.14635
C         17.51431       -5.23410       -2.73684
Br        18.63348       -3.82015       -3.29522
Br        15.31123       -6.88405       -2.38980
H         -0.74362       -7.38766      -10.94070
H         -0.69792       -7.76200       -9.20753
H         -0.08769       -8.93926      -10.38495
H          1.15878       -6.16047       -9.86084
H          1.76546       -7.33439      -11.02382
H          2.20156       -8.96150       -9.14198
H          1.61091       -7.77227       -7.98510
H          3.44608       -6.18300       -8.70010
H          4.04101       -7.39434       -9.83292
H          4.43924       -8.98210       -7.90041
H          3.88030       -7.74304       -6.78109
H          5.75385       -6.22412       -7.54525
H          6.31208       -7.48259       -8.64588
H          6.65839       -9.02925       -6.66486
H          6.15712       -7.73350       -5.58397
H          8.08330       -6.32066       -6.40962
H          8.58694       -7.63995       -7.46742
H          8.79275       -9.14310       -5.41421
H          8.46522       -7.74881       -4.39401
H         10.83012       -8.04957       -6.32475
H         10.89489       -8.32512       -4.58227
H         10.17781       -5.89558       -4.22440
H         10.38635       -5.61471       -5.94735
H         12.57640       -6.60738       -4.02465
H         12.35658       -4.93004       -4.51757
H         12.85515       -5.52124       -6.89485
H         12.86175       -7.23680       -6.46831
H         14.84192       -6.89251       -4.97921
H         14.80711       -6.67688       -7.87434
H         15.55393       -7.77512       -6.88311
H         16.58069       -5.32023       -8.00772
H         17.53950       -6.63519       -7.21202
H         14.79892       -4.00153       -7.46296
H         15.85699       -3.02258       -6.45541
H         13.87203       -2.50116       -4.94761
H         12.82866       -3.40424       -6.04141
H         13.53131       -1.87891       -7.93563
H         14.54463       -0.97919       -6.80931
H         12.48054       -0.43787       -5.42971
H         11.48783       -1.27469       -6.62224
H         12.29740        0.33657       -8.40063
H         13.26658        1.17034       -7.18850
H         11.15569        1.70409       -5.89310
H         10.20186        0.90867       -7.14320
H         11.08332        2.55338       -8.84665
H         12.01698        3.35006       -7.58483
H          8.93422        3.13779       -7.63867
H          9.88239        4.59105       -8.00587
H          9.87300        3.93192       -6.35992
H         14.44734       -4.35609       -3.65672
H         15.94491       -3.48631       -4.00977
H         17.99847       -5.90798       -2.03411
