43

O         10.59906        0.02720        2.22816
C         10.14915        1.08347        1.38741
C          8.64188        0.91470        1.25308
O          8.15396        2.06456        0.54428
C          6.81968        1.98397        0.10817
C          5.77621        2.27886        1.23847
C          6.21492        3.36393        2.14750
N          6.78105        3.13857        3.35829
N          7.08309        4.29500        3.90395
N          6.72856        5.24893        3.06457
N          6.16764        4.69322        1.93896
C          5.70880        5.51445        0.80669
C          6.60343        5.40097       -0.41010
C          6.01191        5.44115       -1.67938
C          6.80815        5.37546       -2.82463
C          8.19545        5.25620       -2.70679
C          8.78624        5.20868       -1.44150
C          7.99452        5.28635       -0.29528
N          6.80771        6.61123        3.24822
C          5.91153        7.06228        4.33673
C          8.20966        7.06746        3.36840
H         11.56697       -0.00196        2.20399
H         10.61587        1.04653        0.38774
H         10.36049        2.07654        1.82780
H          8.19383        0.83793        2.25968
H          8.40426       -0.00633        0.69277
H          6.58145        0.99017       -0.30991
H          6.71305        2.72956       -0.68958
H          5.63305        1.39562        1.87457
H          4.80951        2.52218        0.77339
H          5.67758        6.54020        1.20407
H          4.68131        5.19902        0.57949
H          4.92744        5.52487       -1.77590
H          6.34104        5.40730       -3.80897
H          8.81653        5.19408       -3.60044
H          9.86671        5.10317       -1.34427
H          8.47285        5.21477        0.68260
H          4.89635        6.69658        4.14384
H          5.89883        8.15770        4.30968
H          6.24998        6.71981        5.32715
H          8.77577        6.72962        2.49338
H          8.69062        6.70783        4.29143
H          8.19020        8.16300        3.36675
