51

C          0.49907       -6.86432        3.84974
C          2.02778       -6.92256        3.79910
C          2.63253       -6.04139        2.69983
C          4.16370       -6.08042        2.66140
C          4.77264       -5.21705        1.55152
C          6.30542       -5.23835        1.54754
C          6.91805       -4.42441        0.40407
C          8.44706       -4.36964        0.41582
S          9.19717       -6.06267        0.25861
C          9.52319       -5.80321       -1.42900
N          9.29722       -4.54028       -1.81489
C          9.07706       -3.55502       -0.73870
C         10.37323       -2.82296       -0.36394
C         10.93966       -1.94849       -1.48833
C         12.34860       -1.40419       -1.16526
C         13.33588       -2.46647       -1.01789
C         14.12934       -3.37259       -0.89649
N          9.96301       -6.75880       -2.24405
C         10.36375       -6.43807       -3.61891
C         10.07430       -8.15545       -1.81142
H          0.09934       -7.50800        4.64475
H          0.05377       -7.19542        2.89981
H          0.14406       -5.84102        4.04178
H          2.35323       -7.96565        3.64688
H          2.44083       -6.61742        4.77543
H          2.29718       -4.99902        2.84205
H          2.23248       -6.35562        1.71954
H          4.49991       -7.12470        2.53510
H          4.56046       -5.75177        3.63793
H          4.42195       -4.17618        1.65952
H          4.39932       -5.56307        0.57183
H          6.65046       -6.28471        1.48042
H          6.67996       -4.85253        2.51166
H          6.56645       -3.37942        0.46853
H          6.56862       -4.80970       -0.56890
H          8.81198       -3.99069        1.38109
H          9.49829       -4.23275       -2.76126
H          8.32715       -2.83371       -1.10143
H         11.12926       -3.56125       -0.04978
H         10.15879       -2.19401        0.51508
H         10.26550       -1.10027       -1.68440
H         11.01400       -2.52214       -2.42745
H         12.31609       -0.80376       -0.24056
H         12.66711       -0.71715       -1.96470
H         14.86763       -4.13849       -0.78150
H         11.02940       -5.56269       -3.63399
H          9.48713       -6.25661       -4.25933
H         10.92024       -7.28787       -4.02584
H          9.53894       -8.30013       -0.86643
H         11.12923       -8.43281       -1.67762
H          9.61973       -8.80610       -2.56944
