64

C         -0.05649        0.36670        1.51594
C          1.36960        0.23074        0.97660
C          2.33248        1.28324        1.53771
C          3.75031        1.17519        0.96745
C          4.71757        2.21733        1.54239
C          6.08926        2.14043        0.89607
O          6.95656        3.11263        1.50640
C          8.22730        3.15686        0.90284
C          9.03825        4.27182        1.59072
C         10.39593        4.39264        0.92578
N         10.35457        5.34303        0.00486
C          9.20811        6.26994        0.12029
C          8.43940        5.68507        1.32630
C          9.66833        7.72777        0.30653
C          8.51087        8.67724        0.43237
C          8.26732        9.42984        1.50796
C          9.24300        3.99247        3.08665
C         10.52978        4.70163        3.45288
O         11.30615        4.96763        2.47537
N         10.85495        5.02610        4.70301
C         12.15767        5.66805        4.99398
C         13.14479        4.74683        5.72029
C         13.50548        3.46965        4.95291
C         14.53651        2.61124        5.68986
C         10.02801        4.66223        5.85676
H         -0.71758       -0.40591        1.10067
H         -0.48894        1.34546        1.26070
H         -0.08181        0.26977        2.61142
H          1.35605        0.30362       -0.12407
H          1.75826       -0.77559        1.20715
H          2.37127        1.19471        2.63783
H          1.93213        2.29117        1.32973
H          3.70566        1.28023       -0.13081
H          4.14520        0.16235        1.15883
H          4.82460        2.07401        2.62992
H          4.31095        3.23106        1.39551
H          6.02238        2.34414       -0.19051
H          6.52937        1.13169        1.01879
H          8.14420        3.36575       -0.18333
H          8.75674        2.18670        1.01096
H         11.07083        3.54906        0.77318
H         11.11033        5.50209       -0.65529
H          8.61565        6.19200       -0.80584
H          7.36044        5.62398        1.15088
H          8.58798        6.33563        2.20010
H         10.28641        8.01303       -0.56318
H         10.31280        7.78658        1.19790
H          7.83660        8.73760       -0.42836
H          8.92476        9.40960        2.38023
H          7.41772       10.11071        1.54904
H          9.36644        2.91424        3.28523
H          8.37656        4.31788        3.67359
H         11.94434        6.55940        5.60326
H         12.57197        6.00067        4.03584
H         12.76132        4.49028        6.72189
H         14.05348        5.34389        5.89791
H         13.88683        3.74097        3.95484
H         12.59417        2.87198        4.77693
H         15.47536        3.16119        5.84608
H         14.77516        1.70169        5.12362
H         14.16715        2.29924        6.67754
H          8.96589        4.65742        5.59501
H         10.18506        5.40881        6.64404
H         10.30466        3.67348        6.25039
