57

C          1.01730        0.66951       -1.12146
C          2.37290        0.08150       -0.78374
O          2.72365        0.48152        0.54832
C          3.98838        0.00065        0.95086
C          4.23355        0.51034        2.36951
C          5.55275        0.01598        2.95913
O          6.71087        0.36804        2.18433
C          6.91778        1.74845        2.14638
N          6.94832        2.32235        3.51074
C          6.47063        1.61268        4.55039
N          6.68416        2.03981        5.80889
C          5.98105        1.60131        7.02728
C          6.63112        0.36663        7.65719
O          6.45469       -0.73941        6.75522
C          5.93626        2.80397        7.98888
C          5.11265        2.58411        9.26075
N          5.76341        0.48409        4.33126
C          7.49995        3.67700        3.66993
C          8.77728        3.74413        4.49185
C          8.90453        4.72214        5.48870
C         10.07558        4.79101        6.24746
C         11.11340        3.88632        6.01974
C         11.00713        2.89711        5.02878
C          9.82591        2.84093        4.27438
C         12.12989        1.92613        4.76899
H          0.72274        0.37800       -2.13837
H          1.04220        1.76619       -1.07182
H          0.24944        0.30730       -0.42508
H          3.14772        0.43809       -1.49032
H          2.35312       -1.02382       -0.84305
H          4.78097        0.35190        0.25973
H          4.01641       -1.10936        0.93148
H          3.42358        0.15885        3.02560
H          4.17932        1.61034        2.38623
H          5.57036       -1.08195        2.98801
H          6.14618        2.27915        1.55632
H          7.89900        1.90477        1.67739
H          7.41879        2.73852        5.92839
H          4.95267        1.33263        6.73230
H          6.14273        0.15034        8.61948
H          7.70351        0.55801        7.83701
H          6.84625       -1.53876        7.13910
H          5.51861        3.65176        7.42497
H          6.97035        3.08660        8.25319
H          4.09128        2.25115        9.02730
H          5.03292        3.52282        9.82299
H          5.56478        1.84383        9.93403
H          5.84586       -0.21390        5.08197
H          6.73188        4.32874        4.11492
H          7.67756        4.05457        2.65146
H          8.09496        5.43435        5.66424
H         10.17898        5.55547        7.01824
H         12.02474        3.94898        6.61699
H          9.72846        2.06933        3.50595
H         12.96250        2.07712        5.46619
H         12.52194        2.04155        3.74776
H         11.78895        0.88520        4.86693
