54

C         17.36743        4.99539        4.46683
C         16.18686        4.38971        4.63414
C         15.62545        3.50564        3.58590
O         16.14132        3.22842        2.51857
O         14.41217        3.01063        3.99009
C         13.78187        2.08834        3.07585
C         12.94165        2.81446        2.02636
C         12.35439        1.82823        1.00953
C         11.47851        2.46984       -0.07659
C         12.21635        3.52192       -0.91617
C         11.38390        3.96905       -2.12416
N         11.90442        5.18894       -2.76594
C         11.42101        6.49746       -2.64761
C         10.22673        6.92272       -1.86070
C         10.34602        6.73089       -0.33159
C         11.65405        7.27826        0.25087
C         11.75604        6.97618        1.74900
S         13.47563        7.15088        2.28752
O         14.26298        6.11938        1.64508
O         13.86883        8.53792        2.22560
Cl        13.27693        6.63131        4.28662
N         12.16619        7.33167       -3.32769
N         13.14623        6.55120       -3.88681
C         13.00999        5.25297       -3.56119
N         13.77765        4.23496       -3.96749
C         14.94230        4.41796       -4.83441
H         17.78987        5.63974        5.23706
H         17.93784        4.85179        3.54796
H         15.59527        4.51126        5.54205
H         13.15988        1.44373        3.71144
H         14.55960        1.48126        2.59030
H         13.58583        3.55458        1.53044
H         12.13397        3.37136        2.53166
H         11.75189        1.06803        1.53156
H         13.17914        1.27856        0.52408
H         10.59157        2.93788        0.38555
H         11.09362        1.67487       -0.73682
H         13.18629        3.11338       -1.24795
H         12.46196        4.40114       -0.30285
H         10.35103        4.19246       -1.82929
H         11.31819        3.18310       -2.89280
H          9.33186        6.39868       -2.23255
H         10.08919        7.98592       -2.10051
H         10.25153        5.66444       -0.07291
H          9.48028        7.22701        0.13121
H         11.73796        8.36069        0.07740
H         12.50991        6.81395       -0.26433
H         11.49127        5.93582        1.98477
H         11.15883        7.65477        2.37128
H         13.86325        6.98140       -4.46146
H         13.63924        3.33339       -3.52663
H         14.64645        4.88942       -5.78253
H         15.35667        3.43169       -5.06323
H         15.72341        5.01811       -4.34363
