68

C          5.10297        1.89649        2.27329
C          4.33466        0.98153        1.34413
O          4.71812        1.30608       -0.03274
P          3.73664        1.01373       -1.25811
O          2.30054        0.81414       -0.95098
C          4.01967        2.46246       -2.33146
C          3.25815        2.31314       -3.66129
N          3.09045        3.58296       -4.39616
C          4.15326        4.16272       -4.96918
N          5.32433        3.49188       -5.10569
N          4.08386        5.42605       -5.41335
C          3.05361        6.39719       -5.02644
C          2.03723        5.78555       -4.05684
C          1.78197        4.32261       -4.51483
C          0.54473        3.58830       -3.94992
C          0.36299        3.21121       -2.45970
C          0.80453        4.24126       -1.41552
C          0.77666        3.66263        0.00560
S          1.89910        4.62652        1.02052
O          3.26131        4.37552        0.56734
O          1.40451        5.97571        1.13203
O          1.72761        3.92124        2.47160
C          0.78334        6.67503       -4.01156
C          1.01913        8.12765       -3.53832
C         -0.30250        8.90498       -3.59704
C          1.63736        8.19582       -2.13382
O          4.34126       -0.25021       -2.04211
C          5.77136       -0.50719       -2.15993
C          5.95358       -1.83977       -2.85523
H          4.81923        1.68678        3.31464
H          4.89308        2.95020        2.04501
H          6.18532        1.73741        2.18477
H          3.24591        1.10472        1.43456
H          4.57424       -0.07708        1.52225
H          5.09708        2.61906       -2.48055
H          3.64806        3.32180       -1.75526
H          2.25561        1.92088       -3.48084
H          3.73753        1.56530       -4.31312
H          5.32958        2.48052       -5.13540
H          6.13392        3.96322       -5.48785
H          4.84384        5.75808       -5.99762
H          2.54499        6.74199       -5.94105
H          3.55185        7.26448       -4.57111
H          2.49128        5.75010       -3.05599
H          1.58269        4.36501       -5.60161
H          0.41135        2.67096       -4.54479
H         -0.29244        4.23150       -4.25801
H          0.87341        2.26577       -2.23003
H         -0.70773        2.99094       -2.32583
H          0.19311        5.15268       -1.45358
H          1.83705        4.55328       -1.62597
H          1.15067        2.62811        0.02613
H         -0.21368        3.71067        0.47671
H          2.56452        3.46185        2.67573
H          0.03832        6.22213       -3.34185
H          0.32146        6.69392       -5.01462
H          1.71358        8.61961       -4.24362
H         -1.04074        8.48161       -2.89884
H         -0.74191        8.88317       -4.60449
H         -0.15233        9.95697       -3.32014
H          1.00070        7.70059       -1.38525
H          1.76019        9.24038       -1.81815
H          2.63102        7.72741       -2.07780
H          6.21445       -0.50841       -1.15378
H          6.23944        0.31175       -2.73464
H          5.48847       -2.64703       -2.27547
H          7.02474       -2.06221       -2.95751
H          5.50509       -1.83184       -3.85734
