39

C          1.09576       -0.25972        1.99672
C          0.02556        0.24179        1.05999
C         -1.13319       -0.52023        0.85383
C         -2.16347       -0.08469        0.01695
C         -2.05854        1.14416       -0.63523
C         -0.91213        1.91827       -0.44667
C          0.13154        1.47979        0.38489
C          1.32575        2.39425        0.56464
N          2.64688        1.84143        0.17253
C          3.78531        1.99474        1.08245
O          4.54353        0.80125        1.08229
C          5.13980        0.61267       -0.16856
N          4.14160        0.74860       -1.24944
C          2.89586        1.23253       -1.00369
N          1.95958        1.11867       -1.96086
C          4.62593        0.46678       -2.60435
C          4.30510       -0.90942       -3.15952
C          3.74043       -2.00746       -2.36143
O          2.90028       -1.23488       -3.25664
H          0.74533       -1.13868        2.54964
H          1.37954        0.50087        2.74092
H          2.01615       -0.54866        1.46731
H         -1.23461       -1.47334        1.37628
H         -3.05303       -0.70129       -0.11372
H         -2.86296        1.50431       -1.27641
H         -0.83302        2.89336       -0.93552
H          1.43796        2.66996        1.62376
H          1.15639        3.33255        0.01357
H          3.40290        2.14082        2.09802
H          4.41301        2.85632        0.78734
H          5.54387       -0.41006       -0.17738
H          5.95948        1.33596       -0.34975
H          2.06491        0.31269       -2.59424
H          1.00319        1.37293       -1.71671
H          5.72004        0.59206       -2.58675
H          4.23542        1.23401       -3.29133
H          4.87787       -1.16147       -4.05905
H          3.53159       -1.86034       -1.29798
H          3.90780       -3.03943       -2.67710
