38

C          5.73041       -0.43609        1.69668
C          4.52719       -1.27935        1.26058
C          3.21612       -0.44602        1.20436
C          2.83179        0.25881        2.46415
C          3.00411        1.59578        2.76355
C          3.55075        2.71654        1.94813
C          2.44285        3.52961        1.21748
C          3.02193        4.54521        0.29812
C          2.96509        5.87558        0.43463
F          2.35212        6.47234        1.45507
F          3.49039        6.74166       -0.40756
F          3.68592        4.03680       -0.77450
N          2.48117        1.79289        4.03469
C          2.00648        0.65352        4.53202
N          2.20455       -0.30224        3.59989
C          1.81174       -1.69865        3.88423
C          2.77502       -2.42316        4.87639
F          4.03665       -2.38644        4.37775
F          2.75523       -1.75423        6.06413
F          0.57825       -1.66634        4.44366
F          1.75436       -2.38899        2.73404
C          4.76016       -1.92908       -0.10832
H          5.59035        0.01650        2.68943
H          5.93460        0.37198        0.97687
H          6.63369       -1.05735        1.75053
H          4.38574       -2.08432        1.99752
H          2.38832       -1.07952        0.86021
H          3.33372        0.33634        0.43832
H          4.24930        2.30619        1.20841
H          4.14275        3.38854        2.58828
H          1.78658        4.03204        1.94129
H          1.81215        2.83872        0.63387
H          2.46158        2.68181        4.53001
H          1.54215        0.51309        5.50043
H          2.45317       -3.46569        5.02811
H          4.91186       -1.16935       -0.89016
H          3.91237       -2.55966       -0.41011
H          5.65616       -2.56302       -0.08563
