37

C          4.16573       -1.73576        1.51590
C          3.91593       -0.56264        1.66236
C          3.63604        0.85641        1.83922
N          4.08422        1.68695        0.69748
C          3.21253        2.32995       -0.09612
N          1.95531        1.89186       -0.30914
C          1.50053        0.49778       -0.36496
N          3.59385        3.46531       -0.71965
C          5.54695        1.86519        0.55373
C          6.15286        2.95117        1.44968
C          7.68417        3.03043        1.29198
C          8.28512        4.12638        2.14342
C          8.63114        3.88381        3.48061
C          9.15165        4.90430        4.27905
C          9.33328        6.18470        3.74932
C          8.99470        6.43720        2.41757
C          8.47418        5.41409        1.62187
H          4.38034       -2.77839        1.39352
H          4.15542        1.23008        2.73692
H          2.56630        1.03645        2.00887
H          1.29595        2.59710       -0.62394
H          2.35987       -0.17427       -0.45667
H          0.86499        0.37739       -1.25044
H          0.92061        0.22051        0.52542
H          4.36097        4.02377       -0.36476
H          3.12144        3.78197       -1.55736
H          5.75604        2.06297       -0.50706
H          5.99244        0.88575        0.78481
H          5.90776        2.75649        2.50571
H          5.71969        3.94109        1.22201
H          7.93445        3.20437        0.23289
H          8.12503        2.05807        1.56364
H          8.50607        2.88169        3.89835
H          9.42568        4.69690        5.31403
H          9.74705        6.98037        4.36932
H          9.14635        7.43065        1.99385
H          8.22889        5.61539        0.57576
