96

N          4.28729       -0.56591       -2.41286
C          3.27644        0.47517       -2.64150
C          3.00464        1.26008       -1.35472
C          4.25089        1.95716       -0.74406
C          4.70755        3.18832       -1.47782
N          4.08738        4.37101       -1.22765
C          3.01557        4.50745       -0.20122
C          3.55774        4.99787        1.14827
C          2.51148        4.87011        2.26847
C          2.30695        3.43099        2.75760
C          1.27865        3.29418        3.88537
C          1.20513        1.87161        4.44969
C          0.14382        1.68578        5.53794
C          0.15702        0.28535        6.15867
C         -0.92659        0.06547        7.21818
C         -0.86007       -1.31551        7.87740
C         -1.98248       -1.57318        8.88726
C         -1.88061       -2.93644        9.57811
C         -3.03884       -3.22971       10.53595
C         -2.92440       -4.58512       11.24048
C         -4.10362       -4.88586       12.16770
C          4.46176        5.54066       -1.85861
C          5.48274        5.57114       -2.76077
C          6.18547        4.37844       -3.07445
C          5.77183        3.16379       -2.42579
C          6.46341        1.96685       -2.76292
C          7.50670        1.99593       -3.66333
C          7.94083        3.19432       -4.30713
C          7.25319        4.36291       -3.99870
C          9.11493        3.17294       -5.28407
C         10.47271        3.18519       -4.49359
C         10.79595        2.18045       -3.36531
C         11.13997        0.76207       -3.84516
C         11.97397        2.73758       -2.54761
C          9.01765        1.93741       -6.22393
O          7.85586        1.95150       -7.05358
C          9.12704        4.42203       -6.18964
H          4.50811       -1.04296       -3.28765
H          3.91960       -1.28517       -1.78645
H          2.30943        0.08614       -3.01004
H          3.65731        1.14978       -3.42490
H          2.61649        0.56797       -0.59018
H          2.19995        1.98539       -1.54893
H          5.06878        1.22858       -0.72568
H          4.04751        2.21327        0.30415
H          2.50737        3.54598       -0.10207
H          2.28384        5.21929       -0.60672
H          3.88541        6.04341        1.04423
H          4.45392        4.41420        1.41584
H          1.55116        5.30057        1.93624
H          2.83984        5.49127        3.11574
H          3.27789        3.03713        3.10727
H          1.99498        2.77808        1.92200
H          0.28490        3.60186        3.51702
H          1.53395        3.99569        4.69787
H          2.19420        1.59672        4.85677
H          1.00799        1.16031        3.62755
H         -0.85441        1.89265        5.11440
H          0.29844        2.43686        6.33194
H          1.14862        0.09947        6.60762
H          0.04054       -0.46917        5.36059
H         -1.92012        0.20418        6.75684
H         -0.84235        0.84459        7.99573
H          0.11673       -1.43018        8.37954
H         -0.89122       -2.09508        7.09581
H         -2.95688       -1.49628        8.37349
H         -1.97949       -0.77598        9.65106
H         -0.92604       -2.99351       10.13039
H         -1.83425       -3.73066        8.81208
H         -3.99102       -3.18982        9.97781
H         -3.09985       -2.42945       11.29450
H         -1.98393       -4.61513       11.81628
H         -2.83981       -5.38116       10.48141
H         -4.19612       -4.12223       12.95431
H         -3.99019       -5.86035       12.66239
H         -5.05254       -4.90295       11.61122
H          3.88741        6.42170       -1.58102
H          5.74873        6.51443       -3.23719
H          6.15214        1.01069       -2.33758
H          8.01299        1.05721       -3.88872
H          7.52317        5.30455       -4.47564
H         10.54754        4.19564       -4.06004
H         11.27411        3.12871       -5.25157
H          9.92956        2.11840       -2.68349
H         11.95216        0.78664       -4.58767
H         10.29214        0.23548       -4.30269
H         11.48359        0.14604       -3.00259
H         12.87144        2.84464       -3.17603
H         12.22976        2.06409       -1.71817
H         11.74203        3.72518       -2.12458
H          9.08591        0.98974       -5.67177
H          9.87996        1.97195       -6.90604
H          7.11338        1.57692       -6.55612
H          9.28267        5.34642       -5.61737
H          8.20046        4.50624       -6.77107
H          9.96022        4.34412       -6.90111
