93

C          0.57776       -0.52550        1.62118
C          1.08319        0.40618        2.70250
O          2.44761        0.75698        2.39664
C          2.99957        1.64132        3.35562
C          4.41972        1.91322        2.98863
N          4.80673        2.50324        1.78330
C          3.92128        3.05305        0.72666
C          3.79003        4.58367        0.75513
C          3.06935        5.17628        1.97709
C          3.91458        5.29406        3.25880
C          3.07189        5.41471        4.53472
C          3.84457        5.07015        5.81203
C          2.96576        5.06969        7.06583
C          3.65591        4.52756        8.32103
C          2.73749        4.52206        9.54689
C          3.36157        3.91375       10.80627
C          2.40966        3.92575       12.00673
C          2.98887        3.29637       13.27733
C          2.01170        3.31596       14.45716
C          2.56601        2.68472       15.73794
C          1.57597        2.70906       16.90810
C          2.12964        2.07800       18.18792
C          6.13807        2.60527        1.75733
N          6.61271        2.10867        2.90973
C          5.56950        1.66228        3.70696
C          5.79073        1.04327        5.04387
C          6.60562       -0.26525        4.97944
C          6.67678       -0.93064        6.35606
S          7.40665       -2.58489        6.31942
C          6.00441       -3.59709        5.81676
S          4.48920       -2.95837        5.51648
N          6.31324       -4.91148        5.72864
C          7.63144       -5.49468        6.00893
C          8.08831       -6.33718        4.81374
O          7.13332       -7.33655        4.48231
C          5.87174       -6.74713        4.16988
C          5.32559       -5.92592        5.33707
H         -0.46242       -0.80892        1.82932
H          1.18156       -1.44137        1.58175
H          0.60878       -0.04198        0.63578
H          1.05016       -0.07780        3.69608
H          0.47381        1.32868        2.75654
H          2.97872        1.20409        4.37105
H          2.42116        2.58539        3.40612
H          2.95344        2.55289        0.85202
H          4.33751        2.71896       -0.23318
H          3.23004        4.83755       -0.15815
H          4.78448        5.04475        0.63140
H          2.17086        4.56893        2.18295
H          2.68700        6.17196        1.70712
H          4.59974        6.15281        3.17014
H          4.56599        4.41534        3.37491
H          2.20906        4.72868        4.45786
H          2.63749        6.42470        4.61202
H          4.69053        5.76633        5.94421
H          4.29619        4.06677        5.68820
H          2.06207        4.46561        6.86798
H          2.60261        6.09352        7.25797
H          4.55995        5.12332        8.53737
H          4.01074        3.49873        8.12508
H          1.81303        3.96972        9.30099
H          2.41808        5.55657        9.76250
H          4.28573        4.46104       11.06269
H          3.67321        2.87482       10.59619
H          1.47852        3.39794       11.73411
H          2.11095        4.96701       12.22065
H          3.91677        3.82444       13.55973
H          3.28707        2.25382       13.06645
H          1.08299        2.79320       14.16700
H          1.71517        4.35918       14.66515
H          3.49274        3.20802       16.03343
H          2.86265        1.64042       15.53343
H          0.65082        2.18746       16.60948
H          1.28063        3.75286       17.10947
H          2.39617        1.02219       18.03023
H          1.39742        2.11631       19.00625
H          3.03647        2.59884       18.52997
H          6.72889        3.02055        0.94924
H          7.59894        2.04609        3.14647
H          4.80851        0.82864        5.48766
H          6.27584        1.77593        5.71116
H          7.62530       -0.08018        4.60435
H          6.11089       -0.95324        4.27962
H          5.67022       -1.03483        6.78810
H          7.31257       -0.36666        7.05495
H          7.55174       -6.12712        6.90911
H          8.36689       -4.70700        6.20929
H          9.02077       -6.86245        5.05964
H          8.27102       -5.67428        3.94453
H          5.19025       -7.57651        3.93994
H          5.96518       -6.10348        3.27326
H          5.13530       -6.57986        6.20449
H          4.39557       -5.41273        5.06670
