57

C         17.58492        7.74775        2.57942
O         17.08077        6.52286        2.07162
C         16.24367        6.71591        0.94505
C         15.77831        5.37875        0.41134
O         14.84896        4.78961        1.31881
C         14.33416        3.56208        0.83596
C         13.46103        2.92651        1.89542
O         12.31250        3.75164        2.13444
C         11.41468        3.18549        3.06582
C         10.34418        4.23503        3.39603
C         10.88799        5.53426        3.95205
C         11.82120        5.38868        5.00936
N         12.29639        6.37210        5.74836
N         11.75448        7.54980        5.48612
C         10.86943        7.83498        4.50711
C         10.48557        6.84350        3.56455
C          9.67525        7.13659        2.27641
C          8.16507        6.90965        2.64173
C          7.07273        7.46199        1.69573
C          7.04781        6.81826        0.30355
C          5.71068        7.28854        2.38555
C          9.85917        8.59099        1.78487
O         11.25675        8.88154        1.76256
C         10.20175        6.22788        1.11568
Br        10.18906        9.57706        4.74768
H         18.23724        7.50307        3.42614
H         16.76934        8.40942        2.92976
H         18.17263        8.29265        1.81731
H         16.79297        7.24248        0.13819
H         15.36427        7.33730        1.21290
H         16.64827        4.71017        0.26645
H         15.30083        5.53907       -0.57568
H         15.15213        2.85201        0.60072
H         13.74988        3.71819       -0.09333
H         14.03184        2.80664        2.83509
H         13.14489        1.92544        1.54759
H         11.95132        2.85540        3.97742
H         10.91385        2.28763        2.65574
H          9.69462        3.81303        4.18428
H          9.70887        4.40099        2.52676
H         12.21610        4.40724        5.27030
H         12.04146        8.30278        6.11749
H          7.98934        7.36857        3.62941
H          7.99837        5.82828        2.77626
H          7.23747        8.54585        1.57148
H          6.90980        5.72821        0.37399
H          7.96141        7.00530       -0.27473
H          6.20624        7.21687       -0.27907
H          5.47964        6.22325        2.53913
H          4.90783        7.71570        1.77012
H          5.68356        7.78503        3.36592
H          9.30549        9.31313        2.40254
H          9.42730        8.63949        0.77334
H         11.39790        9.71699        1.29063
H          9.51951        5.39937        0.89532
H         11.19593        5.81266        1.31657
H         10.29020        6.82045        0.19843
