119

C         14.08879      -13.99496        1.82578
C         13.88742      -12.47763        1.79848
C         14.75543      -11.72708        2.81490
C         14.57068      -10.20673        2.77352
C         15.41111       -9.44800        3.80638
C         15.25572       -7.92653        3.71409
C         16.05000       -7.14942        4.76946
C         15.94267       -5.62984        4.60621
C         16.66989       -4.82580        5.68899
C         16.58460       -3.31146        5.47204
C         17.25392       -2.47909        6.57089
C         17.16858       -0.97024        6.31694
C         17.74612       -0.10987        7.44598
C         17.64851        1.39386        7.16522
C         18.09656        2.27554        8.33508
C         17.96926        3.77734        8.05245
C         18.24134        4.64676        9.28506
C         18.09090        6.15182        9.02662
C         18.07906        6.98546       10.31793
C         17.84990        8.49063       10.14778
C         19.04798        9.23815        9.54634
C         18.97969       10.74080        9.85774
C         17.76047       11.44087        9.25696
O         18.01927       12.82644        9.34867
C         16.93369       13.64322        8.90978
C         17.39653       15.09045        9.00325
O         16.31417       15.90708        8.60194
C         16.64103       17.29055        8.62127
N         20.33283        8.66802       10.05313
C         20.38666        7.62505       10.90478
N         21.55363        7.36121       11.53089
N         19.32236        6.83776       11.09572
C         21.58644        9.31708        9.69189
O         22.08573        9.98024       10.83953
C         23.19763       10.87422       10.58762
C         23.65990       11.41131       11.93142
C         24.80178       12.43027       11.83150
C         25.25924       12.91802       13.21186
C         26.37430       13.96763       13.16951
C         26.82259       14.42138       14.56357
C         27.91047       15.49971       14.54604
C         28.35807       15.93977       15.94473
C         29.43355       17.02874       15.92399
H         13.44484      -14.50131        1.09344
H         13.85582      -14.41187        2.81709
H         15.13025      -14.26360        1.59301
H         12.82597      -12.24326        1.98771
H         14.10313      -12.09564        0.78604
H         15.81802      -11.97066        2.63707
H         14.52862      -12.09719        3.83059
H         13.50396       -9.96518        2.92688
H         14.81847       -9.83885        1.76206
H         16.47544       -9.71401        3.67990
H         15.13496       -9.78548        4.82098
H         14.18658       -7.66354        3.80081
H         15.56488       -7.59269        2.70777
H         17.11232       -7.44760        4.72308
H         15.69992       -7.43783        5.77623
H         14.87673       -5.34039        4.59833
H         16.33669       -5.34467        3.61479
H         17.73039       -5.13176        5.72557
H         16.24856       -5.07982        6.67765
H         15.52320       -3.01634        5.39416
H         17.03746       -3.05945        4.49691
H         18.31263       -2.77716        6.66763
H         16.78422       -2.71379        7.54244
H         16.11202       -0.69028        6.15910
H         17.68631       -0.73030        5.37162
H         18.80092       -0.38555        7.62099
H         17.21357       -0.34060        8.38562
H         16.60366        1.64469        6.91026
H         18.24362        1.63882        6.26815
H         19.14111        2.03717        8.60253
H         17.49229        2.02355        9.22472
H         16.95145        3.99134        7.68304
H         18.65454        4.06197        7.23561
H         19.25493        4.43166        9.66597
H         17.54187        4.34847       10.08708
H         17.13541        6.34317        8.51110
H         18.88616        6.50425        8.34864
H         17.28248        6.59238       10.96743
H         17.62149        8.91841       11.13601
H         16.97276        8.66213        9.51099
H         19.05955        9.09164        8.45249
H         19.85995       11.25932        9.45317
H         19.00081       10.88824       10.94816
H         16.83112       11.18216        9.80226
H         17.61532       11.13753        8.19768
H         16.04336       13.48572        9.54661
H         16.65728       13.39960        7.86707
H         18.27848       15.24421        8.34993
H         17.70688       15.31723       10.04279
H         15.74338       17.83511        8.30691
H         17.46737       17.51965        7.92372
H         16.93059       17.62314        9.63489
H         22.17160        8.15673       11.70401
H         21.64272        6.53736       12.11206
H         19.36343        6.14784       11.83673
H         21.38582       10.01869        8.86751
H         22.29972        8.55002        9.33588
H         22.85470       11.68678        9.92150
H         24.00770       10.32616       10.07226
H         23.97822       10.56204       12.55931
H         22.79577       11.86989       12.43835
H         24.47645       13.29276       11.22508
H         25.65778       11.98395       11.29678
H         25.59802       12.05125       13.80637
H         24.39145       13.33380       13.75341
H         26.03036       14.84353       12.59216
H         27.24154       13.56321       12.61890
H         27.18597       13.54613       15.13058
H         25.94727       14.79813       15.12168
H         27.54376       16.37949       13.98815
H         28.78536       15.12985       13.98277
H         28.73178       15.06188       16.49882
H         27.48070       16.29965       16.50872
H         30.33869       16.68789       15.39970
H         29.73008       17.32095       16.94067
H         29.07604       17.93352       15.41014
