53

C          9.23106        8.84809        8.57512
O          9.22430        7.68867        7.74674
C          8.59169        6.58592        8.39845
C          8.23488        5.49935        7.40714
O          9.41433        4.84424        6.92700
C          9.19432        3.52270        6.42790
C          8.19871        3.41590        5.26700
O          8.49712        4.27509        4.16936
C          9.46941        3.78068        3.25933
C          9.95773        4.96868        2.43000
C         10.48959        6.06343        3.29163
N         10.28523        7.34654        3.11706
N         10.94067        7.95059        4.16014
C         11.55083        7.05140        4.95119
N         12.30775        7.26700        6.06261
C         12.42083        6.15339        7.03663
C         13.34861        5.03581        6.55444
O         13.05671        4.25399        5.65482
O         14.48775        4.99960        7.23940
C         15.43382        3.95210        6.86917
C         12.35984        8.62834        6.62944
C         13.03650        9.64943        5.70934
O         12.51170       10.10273        4.70245
O         14.23977        9.99941        6.16290
C         14.95134       11.00344        5.37848
N         11.27251        5.84525        4.41035
H          9.62195        9.68069        7.97584
H          9.86663        8.71371        9.46970
H          8.21077        9.11000        8.90512
H          7.65241        6.92574        8.87461
H          9.24537        6.18047        9.19543
H          7.66749        5.93609        6.56678
H          7.58394        4.77364        7.92948
H          8.83311        2.86009        7.23943
H         10.19118        3.16312        6.13159
H          7.18921        3.70263        5.59393
H          8.14575        2.35698        4.95162
H          9.03606        3.01241        2.59394
H         10.31818        3.30599        3.78972
H          9.13812        5.38950        1.83356
H         10.73592        4.62913        1.72720
H         11.11839        8.96487        4.18024
H         11.42512        5.71608        7.23016
H         12.81911        6.56956        7.96541
H         16.27643        4.07865        7.55294
H         15.74739        4.08553        5.82716
H         14.96838        2.96761        6.99510
H         12.92204        8.56909        7.56504
H         11.34230        8.98947        6.84973
H         15.85643       11.21944        5.95114
H         14.32984       11.89922        5.26625
H         15.19780       10.59606        4.39098
H         11.70458        4.97204        4.76772
