74

O         -0.25175       -1.25422        1.84351
C         -0.66361       -0.60120        0.70026
C         -1.32687        0.62808        0.75288
C         -1.72750        1.25273       -0.42887
C         -1.45951        0.65363       -1.66221
C         -0.79237       -0.57274       -1.69969
C         -0.38576       -1.22608       -0.53078
C          0.28590       -2.57540       -0.58428
N          1.65667       -2.56311       -0.05018
C          2.34285       -3.83324       -0.17199
C          3.79976       -3.71712        0.29974
C          4.60826       -4.94762       -0.13805
C          6.02495       -4.99685        0.43940
S          6.87383       -6.54967       -0.16810
C          7.62393       -5.68179       -1.39347
N          7.55384       -4.35431       -1.30528
C          6.98571       -3.87022       -0.02630
C          8.12169       -3.66574        1.01049
O          9.23566       -4.09409        0.87050
C          7.72014       -2.95215        2.35272
C          8.35447       -1.53145        2.60060
C          8.14832       -0.45229        1.48054
C          6.66290       -0.11564        1.13697
O          6.02731       -0.83437        0.40371
O          6.17083        0.98594        1.70051
F          8.79484        0.67770        1.90295
F          8.75488       -0.90062        0.34898
F          7.80642       -1.04310        3.74721
F          9.68374       -1.69115        2.77694
F          6.35774       -2.82571        2.43772
F          8.12759       -3.75525        3.36702
C          7.88142       -3.47605       -2.44721
C          9.40952       -3.09798       -2.66630
C         10.49214       -4.21374       -2.97273
C         10.42945       -5.13480       -4.26066
C         10.36131       -4.54186       -5.72586
C         11.49685       -3.59386       -6.28773
C         12.99807       -4.08103       -6.40281
C         13.31785       -5.36239       -7.26005
F         12.72888       -5.29436       -8.46495
F         14.64657       -5.43989       -7.42409
F         12.89811       -6.47469       -6.62779
F         13.66273       -3.04293       -6.96674
F         13.48732       -4.28089       -5.15129
F         11.07859       -3.24110       -7.52694
F         11.52187       -2.47798       -5.50987
F         10.26434       -5.61578       -6.54754
F          9.20191       -3.83570       -5.81647
F         11.49743       -5.95353       -4.17056
F          9.30050       -5.91062       -4.13394
F         11.68263       -3.58309       -2.96195
F         10.45760       -5.08473       -1.91592
F          9.42517       -2.17700       -3.65225
F          9.81907       -2.50750       -1.51546
F          7.39190       -4.05561       -3.56487
F          7.23496       -2.31291       -2.23780
H         -0.56056       -0.75501        2.61703
H         -1.53326        1.09135        1.72135
H         -2.25084        2.20800       -0.38160
H         -1.77027        1.13637       -2.58834
H         -0.58475       -1.04711       -2.66109
H          0.33877       -2.90300       -1.63397
H         -0.34676       -3.31834       -0.05064
H          1.63619       -2.24399        0.92059
H          2.32513       -4.11885       -1.23868
H          1.84855       -4.66675        0.37776
H          3.83089       -3.61208        1.39647
H          4.22480       -2.79333       -0.12066
H          4.65705       -4.98837       -1.23873
H          4.08859       -5.86592        0.18286
H          6.00470       -5.06436        1.53427
H          8.11030       -6.16880       -2.23774
H          6.44291       -2.92526       -0.17155
H          6.86536        1.45845        2.20268
