72

C          0.67134       -0.09530        0.14467
C          2.20171       -0.13237        0.14437
C          2.79408       -0.69194       -1.15384
C          4.32581       -0.72708       -1.17064
C          4.90970       -1.27985       -2.47514
C          6.44144       -1.31261       -2.50324
C          7.01550       -1.85186       -3.81786
C          8.54736       -1.88450       -3.85542
C          9.11344       -2.39815       -5.18403
C         10.64518       -2.44957       -5.21959
C         11.20530       -2.92151       -6.56626
C         12.73276       -3.06090       -6.57726
C         13.27811       -3.49175       -7.94473
C         14.81325       -3.63025       -8.02551
P         15.53533       -4.84578       -6.88671
C         14.68623       -6.46506       -6.96616
O         15.30004       -7.25371       -5.98510
C         14.72831       -8.59028       -5.90536
C         15.38217       -9.34862       -4.76591
C         14.87730      -10.79827       -4.70736
C         15.47636      -11.61564       -3.55707
C         15.00718      -13.07600       -3.56114
C         15.59765      -13.91119       -2.42265
C         17.30670       -5.05081       -7.14006
H          0.27773        0.31055        1.08682
H          0.24724       -1.10239        0.01507
H          0.28620        0.53171       -0.67331
H          2.55650       -0.73781        0.99578
H          2.59512        0.88444        0.31341
H          2.43406       -0.08887       -2.00631
H          2.40344       -1.71144       -1.32164
H          4.68695       -1.33405       -0.32159
H          4.71565        0.29195       -0.99958
H          4.54377       -0.67326       -3.32229
H          4.52025       -2.29918       -2.64529
H          6.80995       -1.92698       -1.66275
H          6.83129       -0.29472       -2.32587
H          6.64425       -1.23591       -4.65575
H          6.62474       -2.86924       -3.99626
H          8.92004       -2.51567       -3.02934
H          8.93889       -0.87057       -3.66105
H          8.75024       -1.75745       -6.00641
H          8.71143       -3.40643       -5.38728
H         11.00506       -3.11774       -4.41690
H         11.05140       -1.44995       -4.98651
H         10.89929       -2.21740       -7.35882
H         10.75235       -3.89269       -6.83272
H         13.01913       -3.78964       -5.79574
H         13.19670       -2.10375       -6.28197
H         12.99220       -2.74818       -8.70428
H         12.80527       -4.43458       -8.26372
H         15.31774       -2.67699       -7.79471
H         15.14017       -3.92711       -9.03498
H         15.36230       -4.39712       -5.55919
H         14.79703       -6.86406       -7.99642
H         13.60591       -6.29568       -6.78345
H         14.89584       -9.09899       -6.87230
H         13.63812       -8.49651       -5.74866
H         15.17223       -8.83147       -3.81615
H         16.47523       -9.33642       -4.90435
H         15.10647      -11.30013       -5.66330
H         13.77719      -10.80170       -4.61771
H         15.21227      -11.14597       -2.59369
H         16.57820      -11.58536       -3.61867
H         15.27056      -13.53493       -4.52913
H         13.90578      -13.10216       -3.50471
H         16.69630      -13.93530       -2.47061
H         15.24214      -14.94944       -2.46637
H         15.31706      -13.50618       -1.43931
H         17.49807       -5.40054       -8.16245
H         17.67756       -5.79170       -6.42045
H         17.81323       -4.09076       -6.97788
