85

C          0.50205        0.07023        0.26740
C          2.03187        0.01274        0.29233
C          2.63642       -0.66741       -0.94107
C          4.16763       -0.71986       -0.92789
C          4.77223       -1.38600       -2.16791
C          6.30427       -1.41236       -2.17028
C          6.90230       -2.07662       -3.41447
C          8.43399       -2.07189       -3.44607
C          9.01913       -2.75609       -4.68572
C         10.54936       -2.72087       -4.75208
C         11.12102       -3.47153       -5.95885
C         12.64796       -3.40702       -6.07106
C         13.19852       -4.25674       -7.22089
C         14.71931       -4.17828       -7.39054
C         15.23737       -5.09530       -8.50349
C         16.74478       -4.98507       -8.75540
C         17.22532       -5.95650       -9.83799
C         18.71808       -5.76845      -10.19416
C         19.15945       -6.71981      -11.24712
N         19.19825       -6.46772      -12.53549
N         19.58786       -7.65311      -13.11035
C         19.79477       -8.61857      -12.19383
N         20.24591       -9.88043      -12.40020
C         19.85295      -11.00831      -11.50855
C         20.54399      -10.90262      -10.13477
O         20.42095       -9.94537       -9.37545
O         21.25011      -11.99345       -9.87466
C         21.91069      -12.08282       -8.55313
C         20.98227      -12.70555       -7.53062
C         18.33582      -11.16596      -11.34147
C         20.69382      -10.21554      -13.76960
C         19.61058      -10.28535      -14.74950
C         18.69694      -10.30520      -15.54155
N         19.51819       -8.03795      -11.00286
H          0.10156        0.56699        1.16202
H          0.06475       -0.93866        0.22421
H          0.13765        0.62399       -0.61096
H          2.36641       -0.51822        1.19982
H          2.43752        1.03542        0.37609
H          2.29793       -0.13846       -1.84985
H          2.23536       -1.69327       -1.02477
H          4.50720       -1.25483       -0.02330
H          4.56536        0.30650       -0.83644
H          4.41762       -0.86032       -3.07220
H          4.38886       -2.41843       -2.25160
H          6.66327       -1.93686       -1.26712
H          6.68581       -0.37913       -2.08919
H          6.52017       -1.56770       -4.31710
H          6.53941       -3.11765       -3.48125
H          8.82160       -2.56797       -2.53871
H          8.79657       -1.02991       -3.39727
H          8.60580       -2.28158       -5.59330
H          8.67760       -3.80613       -4.71486
H         10.96649       -3.15251       -3.82495
H         10.89043       -1.67083       -4.77533
H         10.67281       -3.07053       -6.88523
H         10.80568       -4.52899       -5.90739
H         13.10080       -3.74192       -5.12103
H         12.96296       -2.35686       -6.20226
H         12.71448       -3.95024       -8.16514
H         12.90497       -5.30968       -7.06177
H         15.21251       -4.44152       -6.43847
H         15.01170       -3.13578       -7.60572
H         14.69981       -4.86819       -9.44071
H         14.98344       -6.14126       -8.25622
H         17.29669       -5.17303       -7.81829
H         16.99205       -3.95202       -9.05420
H         16.63006       -5.81830      -10.75482
H         17.05286       -6.99462       -9.50659
H         19.34617       -5.89347       -9.29841
H         18.88961       -4.75248      -10.57479
H         19.57807       -7.75197      -14.12212
H         20.25709      -11.90246      -11.99662
H         22.23318      -11.07420       -8.26812
H         22.78579      -12.70979       -8.75723
H         20.10712      -12.07149       -7.33977
H         21.52512      -12.82163       -6.58253
H         20.64656      -13.69986       -7.85142
H         17.88609      -10.31114      -10.82033
H         18.12119      -12.06753      -10.75299
H         17.86189      -11.27431      -12.32469
H         21.22539      -11.17564      -13.71124
H         21.44488       -9.46990      -14.07939
H         17.89464      -10.34774      -16.25113
H         19.71803       -8.54483      -10.11399
