66

C         12.08537       -6.49745        8.07570
C         11.32940       -5.19340        7.80956
C         11.71862       -4.52206        6.48712
C         10.98522       -3.20093        6.23397
C         11.37281       -2.52101        4.91642
C         10.68891       -1.16507        4.71227
C         11.08441       -0.47762        3.39969
C         10.48824        0.90715        3.22156
O         11.03454        1.76588        4.25427
C         10.56102        3.06705        4.21512
N         11.19454        3.79278        5.36634
C         10.73886        3.23300        6.68936
C         10.88924        4.22910        7.86965
C         10.99628        5.71556        7.47344
N         10.06360        6.04210        6.37532
O          9.70688        3.98516        8.63849
C         12.70233        3.86946        5.24233
C         13.15808        4.87450        4.19119
C         14.67632        5.09224        4.24806
C         15.18531        6.04179        3.15853
C         16.68882        6.32045        3.25264
C         17.20817        7.23891        2.14045
C         18.70047        7.55423        2.26474
H         11.77965       -6.95230        9.02753
H         13.17136       -6.32781        8.12239
H         11.90133       -7.23578        7.28130
H         11.50831       -4.48814        8.63927
H         10.24382       -5.38922        7.80997
H         11.52143       -5.21763        5.65276
H         12.80821       -4.34171        6.47704
H         11.18686       -2.50938        7.07183
H          9.89554       -3.37845        6.24628
H         11.12971       -3.18838        4.07168
H         12.46793       -2.38245        4.88541
H         10.93852       -0.50566        5.56027
H          9.59286       -1.29574        4.73789
H         10.76258       -1.08785        2.54041
H         12.18164       -0.39892        3.32502
H          9.38697        0.88734        3.32041
H         10.74171        1.33065        2.23333
H          9.46526        3.13588        4.35608
H         10.83790        3.60236        3.28804
H         10.76676        4.78136        5.39143
H         11.26088        2.28889        6.87639
H          9.66838        3.01238        6.58906
H         11.78573        3.97587        8.45994
H         12.01756        5.94439        7.13135
H         10.83192        6.31600        8.38420
H          9.09716        5.91163        6.68423
H         10.15252        7.02048        6.09874
H          9.85503        4.27180        9.55440
H         13.05184        2.85194        5.02548
H         13.08441        4.15022        6.23214
H         12.64321        5.83822        4.34925
H         12.87802        4.53021        3.18311
H         15.19009        4.12033        4.15673
H         14.94947        5.48922        5.24101
H         14.63299        6.99583        3.21733
H         14.95097        5.61599        2.16764
H         17.24190        5.36545        3.22526
H         16.91479        6.77239        4.23446
H         16.63081        8.17876        2.14752
H         17.00901        6.76973        1.16237
H         18.92364        8.06753        3.21170
H         19.04073        8.20403        1.44786
H         19.30807        6.63803        2.23404
