77

C          0.19594       -1.41651       -1.19431
C          1.72731       -1.38747       -1.17191
C          2.26594       -0.28925       -2.07191
O          3.72879       -0.20529       -1.91522
C          4.49528       -0.33451       -2.99901
O          4.14494       -0.51324       -4.14694
C          5.97042       -0.20855       -2.57166
N          6.86544       -0.28348       -3.71903
C          7.44258        0.74475       -4.30555
C          7.24500        2.18004       -3.92339
C          8.05617        2.67833       -2.70057
O          9.47376        2.45101       -2.87680
C          9.97833        1.29795       -2.33620
O          9.28663        0.43623       -1.83132
C         11.48208        1.24507       -2.46833
S         12.00102       -0.01998       -3.68629
C          7.84832        4.18778       -2.57899
O          8.40410        4.72509       -1.37206
C          7.64073        4.54824       -0.24787
O          6.57904        3.95810       -0.24861
C          8.31195        5.15185        0.95989
S          9.49761        3.95547        1.68235
S          8.46710        0.36256       -5.61165
C          7.96658       -1.42546       -5.59624
C          7.24509       -1.61032       -4.24379
C          7.13253       -1.74627       -6.83981
C          7.92413       -1.58727       -8.14353
C          7.14933       -1.91996       -9.43595
C          6.03728       -0.89061       -9.71738
C          5.12115       -1.23912      -10.90716
C          4.06776       -0.19548      -11.14910
C          2.73003       -0.33047      -11.08251
C          2.01089       -1.60679      -10.73261
C          1.82223        0.83352      -11.38501
C          8.13843       -2.03372      -10.60437
H         -0.18331       -2.21858       -0.54939
H         -0.19118       -1.59182       -2.20794
H         -0.22733       -0.46933       -0.83080
H          2.13070       -2.35689       -1.50329
H          2.08831       -1.22118       -0.14578
H          1.89028        0.69940       -1.77287
H          2.03960       -0.46132       -3.13175
H          6.22582       -1.01939       -1.87425
H          6.11932        0.72858       -2.02505
H          6.17750        2.35352       -3.71875
H          7.50879        2.79622       -4.79491
H          7.73578        2.16971       -1.78274
H         11.91952        1.01608       -1.48925
H         11.88171        2.19890       -2.82923
H         11.70326       -1.08966       -2.91197
H          6.77202        4.40903       -2.62193
H          8.37134        4.70609       -3.39339
H          7.55713        5.43709        1.69912
H          8.91211        6.02551        0.67942
H          8.55987        3.12034        2.18839
H          8.90477       -1.99701       -5.60547
H          7.89416       -2.08724       -3.49276
H          6.33289       -2.21059       -4.36782
H          6.22282       -1.12593       -6.83748
H          6.79894       -2.79418       -6.73885
H          8.81516       -2.23624       -8.08914
H          8.30402       -0.55184       -8.22665
H          6.67282       -2.90852       -9.29502
H          6.50459        0.09514       -9.89563
H          5.39827       -0.77006       -8.82750
H          4.66937       -2.22828      -10.73672
H          5.73396       -1.33447      -11.81929
H          4.45651        0.79298      -11.42249
H          2.68335       -2.43853      -10.49288
H          1.36386       -1.92589      -11.56574
H          1.34309       -1.44840       -9.87026
H          2.38753        1.74039      -11.63531
H          1.16605        1.05873      -10.52830
H          1.15483        0.60124      -12.23098
H          8.62908       -1.06674      -10.79779
H          7.64191       -2.34502      -11.53156
H          8.92437       -2.77162      -10.38949
