67

C          7.63833        9.50648        3.21907
C          6.25219        9.18914        3.78564
C          5.70800        7.84165        3.29794
C          4.33764        7.52436        3.90748
N          3.77652        6.24819        3.42420
C          2.97115        6.20421        2.34950
S          2.59385        7.58336        1.44011
S          2.37712        4.55898        1.97205
C          1.50938        4.74602        0.38337
C         -0.01296        4.55464        0.45476
C         -0.77831        5.46333        1.42477
N         -0.48630        6.87601        1.18062
C         -1.33013        7.84847        0.89277
N         -2.68229        7.75982        1.12013
C         -3.26419        7.32645        2.34039
O         -2.64004        6.87866        3.27500
O         -4.58508        7.52482        2.24317
C         -5.38415        7.13796        3.41726
C         -5.77262        5.67411        3.35729
N         -0.86413        8.97015        0.29809
C         -1.51659       10.24639        0.26826
C         -1.98385       10.83708        1.45005
C         -2.59934       12.08804        1.38995
C         -2.72526       12.75488        0.16740
C         -2.23877       12.16683       -1.00339
C         -1.64031       10.90644       -0.95985
C          4.17538        5.05285        4.19063
C          3.24713        4.74243        5.37243
C          3.71838        3.51316        6.15887
C          2.80917        3.18014        7.34429
H          7.99173       10.48901        3.55825
H          7.62757        9.51814        2.11960
H          8.38051        8.75932        3.53558
H          5.54383        9.98605        3.50419
H          6.29347        9.19383        4.88798
H          6.42208        7.03932        3.54836
H          5.61549        7.85159        2.20062
H          3.61805        8.31772        3.66839
H          4.40940        7.44445        5.00265
H          1.94595        3.98654       -0.27846
H          1.79831        5.73728       -0.00142
H         -0.24732        3.51761        0.73979
H         -0.40692        4.69136       -0.56553
H         -0.51436        5.23798        2.46788
H         -1.85401        5.29004        1.31465
H          0.53580        7.14271        1.21117
H         -3.26995        8.37670        0.56067
H         -6.25530        7.80009        3.35543
H         -4.80278        7.37631        4.31688
H         -6.31037        5.44398        2.42860
H         -6.43869        5.44552        4.20075
H         -4.89360        5.02196        3.43810
H          0.06033        8.90223       -0.12339
H         -1.84772       10.33066        2.40646
H         -2.96202       12.55210        2.30725
H         -3.19677       13.73667        0.12781
H         -2.33047       12.68624       -1.95723
H         -1.27244       10.43376       -1.87189
H          5.19919        5.23567        4.54839
H          4.23394        4.19586        3.50379
H          2.22310        4.57919        5.00001
H          3.20079        5.61758        6.04146
H          4.74742        3.68191        6.51801
H          3.77255        2.64592        5.47974
H          2.76542        4.01208        8.06222
H          3.17031        2.29511        7.88427
H          1.78110        2.97123        7.01386
