54

O          7.42067       -0.17341       -3.75109
C          6.67585       -0.34441       -2.54848
C          7.43716       -1.36002       -1.70823
O          6.70871       -1.54108       -0.49489
C          7.34563       -2.41610        0.41577
C          6.48142       -2.41213        1.67614
C          6.94607       -3.34323        2.81413
C          6.88792       -4.83379        2.35588
C          6.52854       -5.63772        3.59610
N          5.52053       -4.75055        4.26076
C          5.97970       -3.30111        4.07037
C          4.75314       -2.36575        4.05752
C          3.66162       -2.83567        3.10362
O          3.39445       -4.03159        2.92166
O          3.00319       -1.83526        2.54561
C          1.88449       -2.16410        1.63630
C          2.38589       -2.37102        0.22077
C          4.14258       -2.19495        5.46709
C          8.39180       -3.01221        3.28433
C          8.70476       -1.55569        3.64416
O          7.74134       -1.13169        4.63502
C         10.13238       -1.40632        4.15953
H          6.97425        0.48606       -4.30234
H          5.65698       -0.72480       -2.74633
H          6.58579        0.60007       -1.98201
H          8.45705       -0.98599       -1.49881
H          7.53046       -2.31519       -2.25831
H          8.37570       -2.06591        0.62519
H          7.43064       -3.43350       -0.01781
H          5.46738       -2.69515        1.35570
H          6.41976       -1.37272        2.02862
H          7.83232       -5.17551        1.91682
H          6.10348       -4.96390        1.59506
H          7.37763       -5.76918        4.27968
H          6.07713       -6.61604        3.39441
H          5.37688       -4.97918        5.24879
H          4.57861       -4.78755        3.75394
H          6.57322       -3.03869        4.95244
H          5.10423       -1.38157        3.72581
H          1.23313       -1.28711        1.72103
H          1.37081       -3.04821        2.03329
H          2.96575       -1.50613       -0.12610
H          1.52305       -2.49458       -0.44790
H          3.00488       -3.27331        0.13834
H          3.72200       -3.13262        5.85955
H          3.33123       -1.45745        5.44769
H          4.91254       -1.83643        6.16230
H          9.09334       -3.30511        2.48947
H          8.64264       -3.64135        4.15584
H          8.58149       -0.92700        2.74264
H          8.01110       -0.25775        4.95907
H         10.28528       -2.01056        5.06466
H         10.35083       -0.35682        4.40465
H         10.86228       -1.72099        3.40093
