101

C          1.09457        0.37442        1.28122
C          2.42555       -0.20687        0.79729
C          3.07946        0.61343       -0.32072
C          4.41380        0.03821       -0.80650
C          5.05843        0.84391       -1.93925
C          6.38918        0.26213       -2.42769
C          7.02013        1.05098       -3.57965
C          8.34012        0.45794       -4.08328
C          8.95288        1.23130       -5.25534
C         10.26414        0.63114       -5.77318
C         10.86686        1.40090       -6.95287
C         12.18285        0.80896       -7.46805
C         12.78452        1.58298       -8.64566
C         14.10450        0.99588       -9.15613
C         14.72691        1.78980      -10.30964
C         16.05355        1.20568      -10.80587
C         16.70078        2.01399      -11.93561
C         18.03989        1.43563      -12.40176
C         18.70269        2.24427      -13.52392
C         20.06498        1.66348      -13.91372
C         20.84703        2.37569      -15.02012
S         19.96023        2.24173      -16.65636
C         19.52360        3.88184      -16.62577
N         20.06381        4.57097      -15.64305
C         21.08380        3.89911      -14.81158
C         22.49231        4.40385      -15.18390
C         23.50544        4.18102      -14.05190
O         23.36428        2.80836      -13.67787
C         23.94767        2.42698      -12.41223
C         23.11704        1.29925      -11.85847
C         22.24199        1.51873      -10.78544
C         21.40905        0.49446      -10.32530
C         21.43609       -0.75780      -10.94443
C         22.31157       -0.98835      -12.01102
C         23.15227        0.03181      -12.46035
C         24.92753        4.54917      -14.46886
C         18.63702        4.51068      -17.66588
C         19.46081        5.26331      -18.68430
C         19.83545        4.82611      -19.89174
Br        19.41179        3.11184      -20.54867
Br        20.01859        7.01191      -18.14994
H          0.65192       -0.23818        2.07871
H          0.36234        0.43219        0.46183
H          1.22420        1.39267        1.67781
H          2.26945       -1.24005        0.44317
H          3.12516       -0.28312        1.64698
H          3.23351        1.64954        0.02991
H          2.38116        0.68652       -1.17352
H          4.26037       -1.00247       -1.14320
H          5.11589       -0.02219        0.04389
H          5.21497        1.88482       -1.60509
H          4.35480        0.90399       -2.78842
H          6.23330       -0.78374       -2.74648
H          7.09962        0.21579       -1.58340
H          7.18661        2.09505       -3.26050
H          6.30316        1.10426       -4.41807
H          8.17513       -0.59118       -4.38642
H          9.06525        0.41945       -3.25118
H          9.12634        2.27867       -4.95113
H          8.22209        1.27596       -6.08228
H         10.09201       -0.41793       -6.07182
H         10.99859        0.59261       -4.94923
H         11.03211        2.45168       -6.65582
H         10.13421        1.43399       -7.77852
H         12.01904       -0.24162       -7.76648
H         12.91541        0.77586       -6.64220
H         12.94521        2.63373       -8.34596
H         12.05418        1.61454       -9.47339
H         13.94066       -0.04783       -9.47711
H         14.82590        0.94400       -8.32153
H         14.88618        2.83413       -9.98767
H         14.01128        1.83883      -11.14925
H         15.89189        0.16814      -11.14647
H         16.75965        1.13815       -9.95938
H         16.85027        3.05507      -11.59800
H         16.00494        2.07008      -12.79132
H         17.89479        0.39640      -12.74369
H         18.73359        1.37507      -11.54617
H         18.81481        3.29006      -13.18703
H         18.02915        2.27072      -14.39837
H         19.95447        0.60382      -14.19493
H         20.73280        1.66200      -13.03778
H         21.81259        1.87899      -15.16185
H         19.91401        5.57916      -15.57865
H         20.87129        4.14683      -13.75973
H         22.45066        5.48200      -15.40218
H         22.83269        3.90610      -16.10616
H         23.20476        4.81043      -13.18725
H         23.93488        3.28832      -11.72203
H         24.99715        2.12194      -12.56399
H         22.21630        2.49771      -10.30164
H         20.74110        0.67262       -9.48166
H         20.78650       -1.55801      -10.58804
H         22.34753       -1.97051      -12.48405
H         23.84063       -0.15510      -13.28707
H         25.26490        3.91034      -15.29685
H         25.62806        4.42762      -13.63259
H         24.98193        5.59851      -14.79132
H         17.92387        5.19106      -17.17732
H         18.06347        3.72485      -18.17520
H         20.40961        5.42851      -20.59202
