34

F          3.98450       -0.36541       -1.48883
C          3.05090       -0.48639       -0.54986
C          2.67746        0.52695        0.24102
C          3.20588        1.91705        0.22689
C          2.13985        2.91938       -0.26654
N          2.54164        4.31223       -0.06519
C          3.57732        4.92931       -0.92650
C          3.18186        6.41885       -0.93259
N          2.27318        6.49798        0.22218
C          1.91771        5.26953        0.64535
N          0.99865        5.08131        1.62296
C          0.03769        6.10228        2.04646
C          0.29206        6.80018        3.40088
C          1.60490        7.60594        3.46359
F          1.72968        8.46953        2.40233
F          1.66959        8.33884        4.58584
F          2.68857        6.78415        3.42853
O         -0.82324        7.64525        3.55671
Br         1.12640        3.59190        2.76899
F          1.70279        0.29255        1.16457
F          2.55514       -1.70562       -0.49035
H          4.09933        1.95711       -0.41095
H          3.51899        2.19306        1.24720
H          1.18681        2.75144        0.24581
H          1.95798        2.77588       -1.34354
H          3.53784        4.47959       -1.92613
H          4.57724        4.75553       -0.50158
H          2.65888        6.71575       -1.85309
H          4.04124        7.08223       -0.78438
H          2.19566        7.32579        0.80731
H         -0.94997        5.62752        2.12732
H         -0.03158        6.85185        1.24580
H          0.36857        6.04283        4.20255
H         -0.86644        7.97075        4.47116
