64

C          6.27482       -3.80107       -6.85567
C          6.02591       -2.30908       -7.08565
C          5.75120       -1.54161       -5.78684
C          5.56094       -0.03511       -6.01453
C          5.40535        0.78346       -4.73303
N          6.71761        0.95865       -3.99643
C          7.52464        2.11649       -4.52022
C          8.90346        2.20757       -3.83821
O          8.78301        2.12075       -2.41619
C          8.02215        1.01400       -1.92880
C          6.58948        1.02759       -2.47696
C          5.75753        2.22492       -1.99922
C          5.23139        2.01498       -0.57369
C          4.47392        3.23509       -0.04897
C          3.86560        2.97243        1.32786
O          3.88512        1.89926        1.87937
O          3.26658        4.03996        1.92539
C         10.03558        1.33339       -4.42532
C          9.79434       -0.13636       -4.71408
O          8.72808       -0.73667       -4.54936
O         10.88516       -0.71181       -5.19613
C         10.78348       -2.12403       -5.61274
C         10.23751       -2.23961       -7.02765
C         10.13603       -3.70248       -7.47875
C          9.54670       -3.85023       -8.88699
C          9.35289       -5.30929       -9.30339
H          6.47941       -4.32289       -7.79946
H          5.40449       -4.28583       -6.39068
H          7.13735       -3.96278       -6.19240
H          5.17937       -2.17293       -7.77863
H          6.90083       -1.86128       -7.58748
H          6.58782       -1.72588       -5.09351
H          4.84937       -1.94879       -5.29890
H          4.65372        0.13717       -6.61433
H          6.38914        0.36634       -6.62372
H          4.71859        0.28152       -4.03694
H          5.00884        1.78688       -4.93540
H          7.33807        0.12120       -4.19248
H          6.95082        3.03102       -4.32955
H          7.62715        1.98929       -5.60541
H          9.24133        3.24247       -4.00057
H          8.00288        1.12533       -0.83797
H          8.51157        0.05340       -2.15939
H          6.09340        0.08499       -2.19673
H          4.90063        2.38609       -2.67180
H          6.37269        3.13720       -2.04056
H          6.05700        1.79134        0.11836
H          4.56686        1.13854       -0.53828
H          3.65554        3.51496       -0.73525
H          5.13902        4.11326        0.01222
H          3.33814        4.83440        1.36751
H         10.90366        1.41170       -3.75350
H         10.37089        1.78362       -5.37400
H         10.15439       -2.65240       -4.88459
H         11.81626       -2.48375       -5.53702
H         10.88632       -1.67384       -7.71471
H          9.23799       -1.77820       -7.06930
H          9.51111       -4.26397       -6.76338
H         11.13310       -4.17327       -7.44751
H         10.20221       -3.33925       -9.61104
H          8.57981       -3.32169       -8.93071
H         10.30708       -5.85555       -9.30600
H          8.92710       -5.38356      -10.31270
H          8.67356       -5.83463       -8.61574
