87

C          6.82751        1.88862      -13.39754
C          6.00986        2.63187      -12.33809
C          6.04365        1.95755      -10.96195
C          5.20131        2.68494       -9.90578
C          5.19747        2.01520       -8.52330
C          6.53530        2.11496       -7.78112
C          6.57238        1.38483       -6.44007
S          6.37665       -0.44123       -6.55204
C          7.95076       -0.85111       -7.13238
N          9.01700       -0.13129       -7.33317
N         10.01529       -1.00170       -7.79163
C          9.46241       -2.17185       -7.82784
O          8.15813       -2.20298       -7.44494
N         10.08606       -3.34289       -8.23434
C          9.59009       -4.60006       -8.03797
N          9.58412       -5.55482       -9.00656
C          9.06074       -6.71355       -8.48062
N          8.73708       -6.51007       -7.21812
N          9.07567       -5.21073       -6.95053
C          8.94601       -4.71915       -5.57522
C         10.24864       -4.89146       -4.77749
O         11.31757       -4.07045       -5.30758
C         11.22905       -2.71056       -5.18866
O         10.28697       -2.13074       -4.69621
C         12.46628       -2.02764       -5.73451
S         13.10614       -2.64156       -7.33699
C          9.96685       -4.67435       -3.27175
O         11.11542       -4.24011       -2.53051
C         12.13535       -5.13890       -2.39527
O         12.12098       -6.25298       -2.87472
C         13.26589       -4.54082       -1.59031
S         14.38914       -3.54209       -2.64093
C          8.82807       -7.95627       -9.26710
C          7.33001       -8.20961       -9.57109
C          6.62915       -6.97494      -10.15388
S          5.13051       -7.36770      -11.08244
C          5.81426       -7.66852      -12.72853
S          7.44071       -7.49003      -13.08439
N          4.87613       -8.03954      -13.62459
C          3.45012       -8.20150      -13.29214
C          3.07624       -9.64123      -12.93052
C          5.23676       -8.31132      -15.02861
C          5.12366       -7.06960      -15.91408
H          6.79064        2.40142      -14.36824
H          6.44941        0.86612      -13.54861
H          7.88533        1.81018      -13.10433
H          4.96280        2.71928      -12.67380
H          6.38255        3.66554      -12.24276
H          7.09342        1.88305      -10.62929
H          5.68172        0.91755      -11.05611
H          4.16197        2.75124      -10.26637
H          5.55187        3.72728       -9.80837
H          4.92075        0.95308       -8.63992
H          4.40968        2.47019       -7.89996
H          6.75789        3.17458       -7.56648
H          7.36606        1.75662       -8.40550
H          5.72750        1.66871       -5.79451
H          7.50290        1.57030       -5.88942
H         11.13441       -3.23567       -8.23245
H          9.84111       -5.38670       -9.97750
H          8.15197       -5.32733       -5.12450
H          8.62368       -3.67327       -5.59511
H         10.63913       -5.90620       -4.92234
H         13.26500       -2.10781       -4.98174
H         12.22402       -0.97202       -5.89527
H         13.55792       -3.83545       -6.88376
H          9.59471       -5.62562       -2.86221
H          9.23104       -3.87970       -3.11178
H         13.82993       -5.34123       -1.10134
H         12.88113       -3.84187       -0.83831
H         14.93117       -4.58937       -3.30719
H          9.24613       -8.80776       -8.71216
H          9.37537       -7.87696      -10.21815
H          6.81530       -8.54657       -8.66057
H          7.29069       -9.03183      -10.29739
H          7.28134       -6.44994      -10.87250
H          6.30210       -6.27630       -9.36962
H          2.87806       -7.86216      -14.16805
H          3.19306       -7.51104      -12.47667
H          3.29012      -10.33091      -13.75819
H          2.00175       -9.70278      -12.71194
H          3.62784       -9.98270      -12.04518
H          4.56408       -9.10643      -15.38179
H          6.26192       -8.70117      -15.03684
H          4.10486       -6.65777      -15.90982
H          5.37477       -7.33058      -16.95096
H          5.81848       -6.28949      -15.57854
