57

Br         4.78546        0.04962        1.97205
C          3.53519       -0.62770        0.60472
C          3.66065        0.12782       -0.70822
C          5.01425       -0.05854       -1.40226
C          5.11928        0.68341       -2.73845
C          6.40544        0.33754       -3.50570
N          6.66728        1.53011       -4.43273
C          5.56961        2.54064       -4.14353
C          5.13110        2.23748       -2.71155
C          6.03557        2.84715       -1.62022
C          6.29986        4.34521       -1.78436
O          5.08925        4.99806       -2.12714
C          5.19532        6.42345       -2.07331
C          3.91734        7.05212       -2.58557
O          2.86377        6.79862       -1.67688
C          1.63714        7.37945       -2.09879
C          6.83498        1.13824       -5.87816
C          6.96261        2.30274       -6.86256
C          8.07577        3.34659       -6.65473
C          9.52402        2.80915       -6.60964
S         10.17929        2.89812       -4.93754
O         10.39701        4.27177       -4.55433
O          9.35715        2.03593       -4.09345
O         11.58957        2.14324       -5.08601
H          2.54218       -0.51211        1.04886
H          3.76907       -1.69351        0.50244
H          3.45768        1.19512       -0.52995
H          2.85456       -0.23847       -1.36901
H          5.17428       -1.13501       -1.58284
H          5.82274        0.26066       -0.72651
H          4.26137        0.38100       -3.36534
H          6.32668       -0.57169       -4.11251
H          7.27622        0.24300       -2.84397
H          7.58945        1.92798       -4.15212
H          4.75293        2.34705       -4.85187
H          5.95222        3.55391       -4.30474
H          4.11733        2.63603       -2.57537
H          7.01358        2.33973       -1.56800
H          5.55167        2.67304       -0.64865
H          7.06942        4.53468       -2.56552
H          6.71370        4.74598       -0.84019
H          6.03930        6.76802       -2.70290
H          5.38704        6.74633       -1.03360
H          3.67513        6.64638       -3.58993
H          4.08706        8.14249       -2.69997
H          0.88783        7.13925       -1.33566
H          1.30837        6.96860       -3.07166
H          1.71966        8.47794       -2.19104
H          5.95970        0.52965       -6.14527
H          7.71884        0.48551       -5.90514
H          6.00460        2.83983       -6.92183
H          7.09405        1.83167       -7.84964
H          7.87819        3.95667       -5.75924
H          8.00887        4.05643       -7.48992
H         10.20760        3.41392       -7.21933
H          9.61703        1.76087       -6.92593
H         12.30623        2.79766       -4.96130
