70

C          0.86694       -0.25740       -0.03398
C          2.39514       -0.16801       -0.03391
C          2.92554        1.20520        0.39309
C          4.45483        1.29547        0.40399
C          4.99087        2.66290        0.83964
C          6.52066        2.73282        0.88183
C          7.06519        4.08940        1.33971
C          8.59465        4.13739        1.41526
C          9.14362        5.48439        1.89597
C         10.67208        5.51527        1.99957
C         11.21992        6.85584        2.50025
C         12.74846        6.86929        2.62129
C         13.28460        8.21775        3.13116
C         14.80573        8.18172        3.24287
S         15.46791        9.81865        3.75646
C         14.87170        9.96565        5.39816
N         15.10325        9.18364        6.40975
N         14.41695        9.71930        7.47920
C         13.80841       10.80726        7.02907
O         14.05783       11.02692        5.68919
S         12.80311       11.93984        7.83648
C         12.81762       11.23176        9.53585
C         11.96655       12.13455       10.42419
C         17.26206        9.51234        4.05919
C         18.02766        9.16846        2.77394
C         17.82583       10.20709        1.66363
C         19.51186        9.01803        3.15352
H          0.52096       -1.25373       -0.34168
H          0.42365        0.47558       -0.72459
H          0.45493       -0.05736        0.96652
H          2.77888       -0.40768       -1.04015
H          2.80917       -0.93969        0.63726
H          2.53859        1.44802        1.39879
H          2.51715        1.97945       -0.28055
H          4.84234        1.05512       -0.60183
H          4.85938        0.51718        1.07520
H          4.58776        2.91119        1.83744
H          4.60644        3.44180        0.15769
H          6.92562        2.49491       -0.11759
H          6.90058        1.94414        1.55519
H          6.64454        4.33496        2.33088
H          6.70661        4.87914        0.65628
H          9.01818        3.90263        0.42293
H          8.94953        3.33892        2.09052
H          8.70715        5.72467        2.88140
H          8.80607        6.28346        1.21287
H         11.11134        5.28608        1.01307
H         11.00769        4.70948        2.67550
H         10.77468        7.08999        3.48267
H         10.89992        7.66282        1.81881
H         13.19862        6.64341        1.63980
H         13.07155        6.06548        3.30398
H         12.84310        8.43893        4.11608
H         12.97534        9.02464        2.44766
H         15.28732        8.00765        2.26848
H         15.17260        7.44648        3.97272
H         13.86235       11.18683        9.86672
H         12.41861       10.21213        9.47434
H         12.36755       13.15553       10.47509
H         11.96288       11.72464       11.44247
H         10.92493       12.18397       10.07964
H         17.31777        8.72998        4.82791
H         17.60089       10.46727        4.49090
H         17.67720        8.18578        2.41562
H         18.14268       11.20884        1.99012
H         16.77894       10.27986        1.33048
H         18.42262        9.94073        0.78225
H         19.93032        9.97141        3.50747
H         20.08984        8.70449        2.27460
H         19.66045        8.26439        3.93868
