41

C          3.99036        1.39311       -2.53845
C          4.40643        0.82690       -1.17906
C          4.61632       -0.69146       -1.21230
C          5.03915       -1.25392        0.16790
C          5.23395       -2.73562        0.13227
C          4.25468       -3.67340        0.43200
C          4.50947       -5.04905        0.29429
C          3.43297       -6.05685        0.56390
C          2.24041       -5.89926       -0.40186
O          1.90580       -4.84292       -0.89845
O          1.64234       -7.08312       -0.57270
C          0.42430       -7.09647       -1.40237
C         -0.80656       -6.79963       -0.56811
C          5.77961       -5.45944       -0.13809
C          6.75271       -4.51511       -0.42715
N          6.44113       -3.20664       -0.28587
C          8.15535       -4.85321       -0.89344
C          8.95573       -3.67667       -1.19454
C          9.57184       -2.66144       -1.42610
H          3.84561        2.47973       -2.48314
H          3.04635        0.94990       -2.88640
H          4.75347        1.19927       -3.30623
H          3.64018        1.06944       -0.42463
H          5.33477        1.31588       -0.83963
H          5.38459       -0.94528       -1.96277
H          3.69110       -1.19529       -1.53517
H          4.26800       -1.01858        0.91466
H          5.96789       -0.76346        0.50243
H          3.27710       -3.32345        0.75698
H          3.02177       -5.90745        1.57652
H          3.81211       -7.08390        0.51863
H          0.41049       -8.11315       -1.81157
H          0.55872       -6.37154       -2.21491
H         -0.89939       -7.50549        0.26731
H         -1.70077       -6.90111       -1.19848
H         -0.78780       -5.77529       -0.17473
H          6.01406       -6.51754       -0.25491
H          7.19385       -2.54308       -0.52217
H          8.08345       -5.50333       -1.78156
H          8.64896       -5.45872       -0.11394
H         10.15950       -1.79163       -1.64297
