46

C          7.03212       -0.59635        6.66965
C          5.56633       -0.32893        6.40239
O          5.35868        0.09747        5.00001
P          4.75966       -0.96662        3.92264
O          3.40003       -1.47187        4.22811
C          4.82853        0.11717        2.45163
C          3.72176        1.17648        2.43344
N          3.67579        1.98397        3.73172
C          4.01044        3.45226        3.63772
I          5.92601        3.80922        2.69730
C          4.02983        4.04200        5.05100
O          2.79172        3.83914        5.71279
C          2.50223        2.45104        5.85073
C          2.33533        1.79337        4.48273
C          1.13729        2.36518        3.69633
C         -0.11178        1.58802        3.99147
C         -1.14927        1.95029        4.75293
Br        -1.24388        3.60511        5.66389
Br        -0.18520       -0.13575        3.16381
O          5.92031       -2.03966        3.77951
C          5.64443       -3.47232        3.54623
C          5.88102       -3.82611        2.09365
H          7.16351       -0.85605        7.72957
H          7.64243        0.29118        6.45841
H          7.40304       -1.43128        6.06316
H          5.18705        0.50313        7.01104
H          4.93347       -1.20708        6.59545
H          4.68592       -0.53220        1.57566
H          5.83044        0.56167        2.37345
H          2.74193        0.69626        2.32775
H          3.86732        1.88194        1.60676
H          4.38922        1.54473        4.36315
H          3.26659        3.93100        2.99232
H          4.19263        5.12490        4.99130
H          4.86563        3.59478        5.62589
H          1.56441        2.37344        6.41484
H          3.29886        1.94575        6.43021
H          2.25009        0.69969        4.58560
H          1.31677        2.32809        2.61142
H          0.97876        3.41778        3.97129
H         -2.02570        1.32604        4.90644
H          4.61558       -3.68115        3.86844
H          6.34217       -3.99298        4.21364
H          5.15878       -3.32711        1.43292
H          5.75914       -4.91005        1.95958
H          6.89768       -3.55712        1.77949
