45

C          1.09951        7.61486        2.54641
C          2.61620        7.41011        2.54247
C          3.03405        5.98918        2.93655
C          4.55115        5.77717        2.95409
C          4.96321        4.36062        3.36670
C          6.48143        4.16029        3.42780
C          6.87997        2.74674        3.87079
C          8.39442        2.46849        3.88090
C          9.12709        3.33165        4.89806
N         10.63280        3.06909        4.88850
C         11.41043        4.17520        5.55826
C         11.88882        5.08784        4.42216
O         11.77440        4.74068        3.25673
O         12.41731        6.20725        4.87769
C         12.95115        7.13328        3.87452
C         10.99260        1.72778        5.37586
C         11.59920        0.84638        4.59199
H          0.83141        8.64111        2.26148
H          0.67365        7.42556        3.54297
H          0.60186        6.93381        1.84042
H          3.08737        8.13059        3.23278
H          3.01876        7.64312        1.54214
H          2.57188        5.26714        2.24074
H          2.62190        5.75220        3.93333
H          5.01123        6.50618        3.64506
H          4.96525        6.00368        1.95591
H          4.52832        3.63042        2.66275
H          4.52671        4.12614        4.35317
H          6.90204        4.91567        4.11555
H          6.92166        4.37102        2.43715
H          6.41595        2.01193        3.19543
H          6.46405        2.53616        4.87078
H          8.81111        2.66295        2.87717
H          8.56893        1.40514        4.10247
H          8.78303        3.15287        5.92732
H          9.01451        4.40031        4.67277
H         10.93759        3.17302        3.88860
H         12.27726        3.74673        6.07823
H         10.78396        4.70416        6.28526
H         13.79363        6.66310        3.35473
H         13.27837        8.00379        4.44705
H         12.16416        7.39825        3.15974
H         10.70754        1.55277        6.41352
H         11.85768        1.06367        3.55390
H         11.85825       -0.13827        4.97777
