86

C         11.35221       -6.98764       -8.31386
C         10.81427       -6.14599       -7.15417
C         11.09992       -6.75713       -5.77807
C         10.59899       -5.90313       -4.60956
C         10.95345       -6.47616       -3.23395
C         10.51064       -5.58842       -2.06729
C         10.93765       -6.12040       -0.69615
C         10.55897       -5.19892        0.46666
C         11.02606       -5.72714        1.82566
C         10.68352       -4.79339        2.99085
C         11.02209       -5.36501        4.37036
N         12.46205       -5.65351        4.52895
C         13.04997       -6.83538        4.28721
N         14.35238       -6.88854        3.94430
C         15.12494       -8.15352        3.84990
C         16.49383       -8.00233        4.50483
C         17.31622       -9.30115        4.53954
C         17.49348       -9.96496        3.16655
C         18.40312      -11.19378        3.25177
S         18.37448      -12.06331        1.66243
O         17.04975      -12.60608        1.45256
O         19.01729      -11.25003        0.65674
Cl        19.63841      -13.65835        2.08618
O         14.40020       -9.17031        4.50408
C         13.05909       -9.23350        4.02443
N         12.37713       -7.99081        4.39878
C         12.41540      -10.48190        4.62743
C         10.88763      -10.57260        4.54601
O         10.35557       -9.58367        5.47571
C          9.40916      -10.01438        6.37453
O          8.95577      -11.13454        6.38289
C          9.03253       -8.94576        7.38251
S          9.01136       -7.21809        6.81215
C         10.33797      -10.30675        3.14115
O          8.90007      -10.35395        3.13241
C          8.25842       -9.14820        3.07201
O          8.82423       -8.07452        3.02337
C          6.76097       -9.34131        3.09429
S          6.08992       -8.98875        4.76347
H         11.13872       -6.51960       -9.28445
H         10.90253       -7.99164       -8.32320
H         12.44268       -7.11566       -8.24060
H          9.72647       -6.00517       -7.27167
H         11.25461       -5.13530       -7.19724
H         12.18825       -6.91397       -5.67156
H         10.64497       -7.76203       -5.72211
H          9.50458       -5.77857       -4.68590
H         11.02347       -4.88728       -4.69594
H         12.04623       -6.62781       -3.17787
H         10.50452       -7.47944       -3.12533
H          9.41364       -5.46755       -2.08912
H         10.92726       -4.57533       -2.20598
H         12.03203       -6.27505       -0.69502
H         10.49123       -7.11756       -0.53205
H          9.46443       -5.06225        0.48874
H         10.98630       -4.19605        0.29215
H         12.11889       -5.88894        1.78155
H         10.56720       -6.71116        2.01098
H          9.60147       -4.58508        2.99452
H         11.17962       -3.81589        2.85940
H         10.46012       -6.28832        4.55498
H         10.74585       -4.66812        5.17303
H         13.07847       -4.84525        4.52215
H         14.80911       -6.03618        3.63666
H         15.22410       -8.39988        2.77486
H         16.34607       -7.62789        5.52874
H         17.04356       -7.22463        3.94834
H         16.83956      -10.01094        5.23190
H         18.30035       -9.06052        4.96934
H         17.91560       -9.25000        2.44328
H         16.51600      -10.28581        2.77512
H         18.05618      -11.92535        3.99435
H         19.45353      -10.93983        3.44643
H         13.08435       -9.29317        2.91953
H         11.50886       -8.03491        4.93887
H         12.71013      -10.54279        5.68473
H         12.86068      -11.34950        4.12064
H         10.55437      -11.56099        4.89219
H          9.77490       -8.97622        8.19538
H          8.06675       -9.22958        7.81480
H          8.01925       -7.40382        5.89749
H         10.67786      -11.10419        2.46598
H         10.65569       -9.32929        2.75378
H          6.46825      -10.34684        2.77643
H          6.30250       -8.59449        2.43556
H          6.47464      -10.15904        5.32816
