82

C         10.90518        7.37553       -1.55057
C         10.52022        5.91180       -1.32214
C         11.31607        4.92884       -2.18886
C         10.91576        3.46580       -1.97485
C         11.69466        2.47125       -2.84271
C         11.25878        1.01841       -2.62725
C         12.02283       -0.00299       -3.47673
C         11.56471       -1.44343       -3.22495
C         12.33329       -2.49817       -4.02754
C         11.89511       -3.92947       -3.69937
C         12.71373       -5.00485       -4.42116
C         12.33217       -6.42692       -3.99345
C         13.16222       -7.55202       -4.64258
P         14.96025       -7.45163       -4.36075
C         15.32452       -7.23597       -2.54402
O         16.68646       -7.11522       -2.25771
C         17.29868       -5.85081       -2.31295
C         16.63471       -4.71412       -2.77600
C         17.28459       -3.46907       -2.83629
C         16.54728       -2.24299       -3.31067
C         18.61721       -3.41203       -2.42362
C         19.26085       -4.55531       -1.94530
C         18.63434       -5.80453       -1.86337
C         19.39938       -6.98189       -1.27159
C         18.76274       -7.51962        0.02436
C         19.67828       -8.11111       -2.28020
C         15.83608       -8.88009       -5.05777
C         17.33102       -8.61587       -5.32213
C         18.04013       -9.86957       -5.85353
C         19.53906       -9.64806       -6.07128
H         10.31513        8.05084       -0.91586
H         10.73906        7.67395       -2.59647
H         11.96739        7.55041       -1.32283
H          9.44337        5.77875       -1.52217
H         10.66218        5.65406       -0.25876
H         12.39423        5.04961       -1.98125
H         11.18334        5.19240       -3.25318
H          9.83580        3.35280       -2.17634
H         11.05098        3.20277       -0.91071
H         12.77452        2.56678       -2.63131
H         11.57040        2.73786       -3.90701
H         10.17891        0.92938       -2.83985
H         11.37587        0.75942       -1.55998
H         13.10435        0.08013       -3.26649
H         11.90272        0.24211       -4.54650
H         10.48740       -1.52793       -3.44994
H         11.66469       -1.66927       -2.14841
H         13.41344       -2.39359       -3.82319
H         12.20872       -2.30927       -5.10784
H         10.82703       -4.05747       -3.94339
H         11.97686       -4.08924       -2.60969
H         13.78375       -4.81504       -4.21614
H         12.59827       -4.90065       -5.51368
H         11.27965       -6.61961       -4.25224
H         12.38438       -6.51569       -2.89642
H         13.04042       -7.56463       -5.73841
H         12.85174       -8.54434       -4.27773
H         15.45833       -6.31122       -5.02833
H         14.97088       -8.16213       -2.06349
H         14.71410       -6.39799       -2.16874
H         15.58903       -4.75608       -3.08447
H         16.00574       -2.42950       -4.24929
H         17.23614       -1.40680       -3.48089
H         15.80616       -1.91378       -2.56568
H         19.15735       -2.46507       -2.46314
H         20.29615       -4.48000       -1.60635
H         20.38012       -6.56380       -0.99307
H         17.80013       -8.01208       -0.16855
H         18.59389       -6.71096        0.74773
H         19.42816       -8.25805        0.49263
H         18.76582       -8.67389       -2.52100
H         20.40039       -8.82420       -1.85895
H         20.10278       -7.71457       -3.21293
H         15.30572       -9.14385       -5.98805
H         15.68849       -9.71874       -4.35732
H         17.81852       -8.27745       -4.39755
H         17.43335       -7.79378       -6.04997
H         17.56546      -10.18285       -6.79851
H         17.88811      -10.69925       -5.14307
H         19.72717       -8.82776       -6.77899
H         20.01108      -10.55140       -6.47852
H         20.04835       -9.40277       -5.12891
