60

O          5.56763        2.27531        1.88706
C          4.29426        2.38550        1.53088
O          3.38262        1.87252        2.14633
C          3.99598        3.24270        0.26364
C          3.46714        2.42345       -0.98420
C          2.53411        1.18481       -0.67551
C          1.37014        1.47655        0.32049
O          0.74635        2.51445        0.28335
C          1.00320        0.38244        1.27273
N          1.08386       -0.93831        1.04564
N          0.58294       -1.55674        2.09572
N          0.20141       -0.64626        2.97049
N          0.44127        0.59760        2.48752
C          0.10495        1.85986        3.16926
C         -1.32202        2.32131        2.85326
C         -1.59106        3.71010        3.45666
N         -2.86408        4.20525        2.98129
C         -3.09769        5.63799        3.22713
C         -4.37100        6.13706        2.59137
C         -4.34708        7.14356        1.61936
C         -5.52035        7.63939        1.04738
C         -6.75321        7.11752        1.44617
C         -6.80703        6.11014        2.40993
C         -5.62519        5.62797        2.97839
O         -5.63238        4.63270        3.93561
C         -0.39675       -0.97629        4.30470
C         -0.02887       -2.36896        4.73193
C         -0.90747       -3.43423        4.49707
C         -0.55055       -4.72757        4.88122
C          0.68302       -4.95827        5.49579
C          1.55936       -3.89503        5.73584
C          1.20474       -2.60103        5.35748
F          1.97213        0.78609       -1.84818
F          3.32761        0.18206       -0.21251
F          2.82305        3.28006       -1.80261
F          4.55358        1.92607       -1.63080
F          3.07510        4.17331        0.61346
F          5.13367        3.89776       -0.13167
H          6.13588        2.79072        1.27692
H          0.84782        2.58243        2.81037
H          0.27623        1.70923        4.24373
H         -2.05191        1.59017        3.23714
H         -1.45253        2.38577        1.76508
H         -0.80945        4.40715        3.10999
H         -1.49957        3.66427        4.56600
H         -3.64456        3.66876        3.36404
H         -2.24878        6.19335        2.80086
H         -3.11610        5.86411        4.31515
H         -3.38114        7.54892        1.31123
H         -5.47297        8.42783        0.29704
H         -7.67851        7.49287        1.00852
H         -7.76864        5.69688        2.72536
H         -6.55419        4.40838        4.14351
H         -1.48279       -0.83963        4.20223
H         -0.01017       -0.22251        5.00374
H         -1.86834       -3.25545        4.01071
H         -1.23573       -5.55558        4.70066
H          0.96179       -5.96924        5.79432
H          2.51746       -4.07442        6.22352
H          1.88933       -1.77166        5.54935
