95

C          0.83760        0.96868       -0.93910
C          2.36519        0.87880       -0.89695
C          2.93287       -0.22623       -1.79454
C          4.46171       -0.31883       -1.76719
C          5.02561       -1.41939       -2.67139
C          6.55521       -1.50330       -2.65727
C          7.11655       -2.59601       -3.57240
C          8.64719       -2.66309       -3.58192
C          9.20322       -3.75196       -4.50521
C         10.73414       -3.78146       -4.56406
C         11.28481       -4.86711       -5.49463
C         12.81284       -4.84786       -5.60448
C         13.35373       -5.94234       -6.54055
C         14.88485       -5.93127       -6.61329
C         15.41528       -4.86129       -7.57708
O         16.82843       -4.76432       -7.57231
C         17.42523       -5.99425       -7.95752
C         17.02491       -7.11270       -7.00762
N         15.51039       -7.31742       -6.96102
C         14.96729       -7.83125       -8.30552
C         15.62422       -9.08932       -8.86210
C         14.92979       -9.52246      -10.16417
C         15.57296      -10.77198      -10.77584
C         14.89890      -11.23640      -12.07092
C         15.53838      -12.49828      -12.66051
C         14.86443      -12.98602      -13.94732
C         15.49800      -14.25717      -14.52186
C         14.82125      -14.75923      -15.80254
C         15.45929      -16.03246      -16.36392
C         15.18093       -8.37186       -5.90760
C         15.21331       -7.92019       -4.43572
C         14.65429       -9.06319       -3.55787
F         13.41936       -9.43680       -3.97346
F         15.46894      -10.15473       -3.62933
F         14.57606       -8.68858       -2.27401
O         16.48276       -7.50277       -3.97603
H          0.46181        1.76940       -0.28743
H          0.37278        0.02723       -0.61000
H          0.47794        1.17414       -1.95849
H          2.69684        0.70864        0.14142
H          2.80010        1.84749       -1.19665
H          2.59636       -0.05935       -2.83328
H          2.50238       -1.19754       -1.49235
H          4.79939       -0.48955       -0.72970
H          4.89095        0.65366       -2.06681
H          4.68027       -1.25197       -3.70695
H          4.60333       -2.39360       -2.36775
H          6.90294       -1.67712       -1.62374
H          6.97580       -0.52687       -2.95606
H          6.75473       -2.42895       -4.60232
H          6.70887       -3.57531       -3.26546
H          9.01420       -2.83101       -2.55425
H          9.05173       -1.68300       -3.89037
H          8.80525       -3.60225       -5.52424
H          8.82894       -4.73736       -4.17651
H         11.13965       -3.92908       -3.54784
H         11.10322       -2.79572       -4.89715
H         10.84712       -4.74272       -6.50028
H         10.95502       -5.85943       -5.13985
H         13.25620       -4.97382       -4.60070
H         13.13746       -3.85443       -5.95410
H         12.92708       -5.81218       -7.54787
H         12.98220       -6.91390       -6.17876
H         15.31292       -5.70303       -5.62702
H         15.03682       -3.89077       -7.23147
H         15.03017       -5.01396       -8.60363
H         18.51229       -5.85637       -7.88720
H         17.18819       -6.23446       -9.01143
H         17.32310       -6.86197       -5.98356
H         17.48196       -8.06816       -7.28914
H         15.06977       -7.00926       -9.02151
H         13.89462       -7.99291       -8.14239
H         15.57549       -9.92041       -8.14201
H         16.68900       -8.91145       -9.07653
H         14.96329       -8.69448      -10.89289
H         13.86185       -9.71540       -9.96553
H         15.54661      -11.59188      -10.03716
H         16.64115      -10.57267      -10.97078
H         14.93515      -10.42278      -12.81611
H         13.82831      -11.42480      -11.87850
H         15.51050      -13.30503      -11.90709
H         16.60777      -12.30694      -12.85805
H         14.89935      -12.18412      -14.70549
H         13.79341      -13.16906      -13.75051
H         15.46927      -15.05555      -13.75924
H         16.56806      -14.07317      -14.72404
H         14.85195      -13.96309      -16.56559
H         13.75216      -14.94099      -15.59955
H         16.51851      -15.87216      -16.61452
H         14.95017      -16.36888      -17.27721
H         15.41396      -16.85651      -15.63628
H         15.89487       -9.19068       -6.05958
H         14.18029       -8.75310       -6.13927
H         14.53246       -7.07353       -4.26913
H         17.02675       -8.28130       -3.75983
