65

C          3.06177        1.65087        3.43884
C          2.58455        1.57997        1.98701
C          2.48513        0.14183        1.46861
C          1.95866        0.01432        0.03546
N          2.82883        0.64171       -0.98032
C          2.40018        1.76408       -1.60936
O          1.36039        2.37000       -1.34435
C          3.32252        2.30223       -2.73846
N          2.65242        3.43048       -3.41741
C          1.98434        3.15615       -4.56991
C          1.25386        4.11055       -5.26305
C          0.49815        3.75232       -6.51440
C         -0.99667        3.48607       -6.22551
C         -1.83251        3.21726       -7.48459
C         -1.48855        1.89494       -8.17710
S         -2.56063        1.65059       -9.60769
O         -3.91002        1.37861       -9.15704
O         -2.27085        2.69095      -10.56142
O         -1.94369        0.26519      -10.19738
C          1.22618        5.40197       -4.71097
C          1.89742        5.67025       -3.52534
C          2.61326        4.67501       -2.85556
C          3.34363        4.98694       -1.58147
C          4.85360        5.19477       -1.80293
O          5.53650        4.44033       -2.47253
O          5.27829        6.27618       -1.14723
C          6.71662        6.59600       -1.23883
C          6.98343        7.59201       -2.35654
C          6.30233        8.94875       -2.16402
C          4.04773       -0.07725       -1.34366
H          3.13623        2.68995        3.78617
H          4.05281        1.18824        3.55742
H          2.36900        1.12463        4.11098
H          3.27643        2.15316        1.34596
H          1.60180        2.06831        1.88913
H          1.79910       -0.43475        2.11026
H          3.46482       -0.35771        1.56305
H          0.97588        0.49317       -0.05479
H          1.84986       -1.04734       -0.23766
H          3.52123        1.53515       -3.49637
H          4.29402        2.65672       -2.37090
H          2.06553        2.12899       -4.92291
H          0.96254        2.87254       -6.98395
H          0.58582        4.58011       -7.23541
H         -1.41889        4.36313       -5.71055
H         -1.08924        2.64393       -5.52020
H         -1.71071        4.04473       -8.20006
H         -2.89414        3.20019       -7.19854
H         -1.64692        1.02912       -7.51903
H         -0.46527        1.86767       -8.57625
H         -2.63698       -0.41687      -10.10645
H          0.67701        6.19825       -5.21704
H          1.87655        6.66884       -3.09037
H          3.21387        4.18024       -0.84526
H          2.91035        5.89097       -1.14012
H          7.26564        5.65866       -1.38710
H          6.94764        7.01829       -0.25249
H          6.69638        7.13882       -3.31822
H          8.07717        7.72202       -2.39865
H          5.20881        8.85122       -2.12041
H          6.54336        9.62728       -2.99205
H          6.63140        9.43029       -1.23209
H          4.42821       -0.59888       -0.45769
H          4.83817        0.60373       -1.67964
H          3.85994       -0.82941       -2.12743
