50

O          0.99484       -0.49563        0.33547
C          2.31745       -0.19239        0.31973
O          2.77519        0.51188       -0.54781
C          3.15447       -0.76938        1.46502
C          4.64698       -0.55605        1.19759
C          5.51316       -0.88733        2.42284
P          7.29238       -0.75805        2.07969
C          7.79005        0.93709        1.59841
C          7.59031        1.92351        2.72847
C          8.60307        2.13148        3.67837
C          8.41301        3.03364        4.72695
C          7.21036        3.73750        4.83603
C          6.20196        3.54493        3.88774
C          6.38911        2.64139        2.83933
C          8.27727       -1.41260        3.44336
C          9.74134       -1.70817        3.09180
C         10.34193       -2.54597        4.24797
O          9.61524       -3.26673        4.92563
N         11.68866       -2.40101        4.39787
C         12.56060       -3.00170        5.34463
C         12.11258       -3.83620        6.37999
C         13.04563       -4.34917        7.28422
C         14.40454       -4.04850        7.16904
C         14.84315       -3.22350        6.12905
C         13.92681       -2.70116        5.21953
H          0.77761       -1.08225        1.08188
H          2.92320       -1.83849        1.59870
H          2.84556       -0.26143        2.39438
H          4.79090        0.48724        0.88529
H          4.94675       -1.17461        0.33763
H          5.35354       -1.92052        2.77145
H          5.29626       -0.21903        3.27154
H          7.53559       -1.59200        0.95934
H          7.20129        1.20033        0.70687
H          8.84303        0.87175        1.28454
H          9.55741        1.60800        3.58397
H          9.21045        3.19588        5.45256
H          7.06525        4.44604        5.65163
H          5.27144        4.10895        3.95545
H          5.60769        2.51965        2.08576
H          7.80600       -2.34913        3.78610
H          8.19708       -0.69659        4.27632
H         10.31649       -0.78715        2.91946
H          9.80596       -2.31527        2.17343
H         12.15103       -1.77582        3.74355
H         11.05638       -4.07361        6.47005
H         12.69682       -4.99353        8.09191
H         15.12004       -4.45367        7.88450
H         15.90142       -2.98339        6.02456
H         14.27088       -2.05505        4.40750
