64

C          1.23722       -1.04225       -0.24842
C          2.73195       -1.27046       -0.01495
C          3.17387       -0.96526        1.42181
C          4.66394       -1.23992        1.65597
C          5.12152       -0.86109        3.05448
O          6.50838       -1.23229        3.18636
C          7.08019       -0.89402        4.42949
C          8.54740       -1.38025        4.42060
C          8.81846       -2.73729        5.01448
N          9.65677       -2.72834        6.09490
C         10.06804       -3.81973        6.78926
Br        11.21658       -3.52894        8.23202
C          9.61783       -5.06613        6.38923
C          8.75742       -5.12569        5.29377
C          8.33122       -3.98652        4.58688
C          7.39398       -4.16933        3.41993
C          8.09560       -4.01394        2.05117
C          7.36620       -4.70519        0.88885
C          7.92348       -6.10909        0.42908
C          7.93265       -7.34382        1.41705
C          6.60971       -7.99984        1.98810
C          5.47326       -8.56968        1.04670
C          5.76107       -9.72183        0.00144
C          6.29081      -11.14189        0.45881
C          5.45133      -11.97301        1.49980
F          4.16004      -12.03740        1.13766
F          5.95507      -13.21678        1.55013
F          5.53615      -11.43011        2.72958
F          6.35391      -11.87727       -0.67866
F          7.54805      -11.00309        0.95414
F          4.58350       -9.91302       -0.64344
F          6.66899       -9.25354       -0.89404
F          4.49761       -9.00693        1.88558
F          4.97925       -7.52564        0.33482
F          7.02771       -8.99607        2.80814
F          5.99124       -7.06206        2.76933
F          8.64772       -8.31658        0.81572
F          8.63349       -6.94676        2.53811
F          7.28096       -6.47583       -0.70142
F          9.24279       -5.90778        0.12596
F          6.02372       -4.82663        1.13592
F          7.49510       -3.91976       -0.22711
H          0.96074       -1.24550       -1.29164
H          0.94992       -0.00377       -0.02573
H          0.62656       -1.69844        0.38980
H          3.31592       -0.64489       -0.71074
H          2.99004       -2.31488       -0.25931
H          2.57210       -1.56674        2.12535
H          2.94823        0.09022        1.65357
H          5.27010       -0.68352        0.92340
H          4.87385       -2.30901        1.49038
H          4.52745       -1.38633        3.82743
H          5.01540        0.22557        3.23056
H          6.51621       -1.33950        5.27373
H          7.07858        0.20248        4.57760
H          9.16922       -0.63972        4.94518
H          8.88111       -1.36646        3.37143
H         10.01082       -1.82061        6.40405
H          9.93332       -5.96045        6.92244
H          8.39705       -6.10227        4.96611
H          6.57845       -3.43923        3.46843
H          6.94779       -5.16313        3.51315
H          9.12799       -4.38564        2.07881
H          8.13409       -2.95240        1.77388
