52

F          2.92247        0.22792        1.41704
C          4.07470        0.19994        0.62600
C          4.08850       -1.08763       -0.18850
C          5.31205       -1.15956       -1.10928
C          5.28857       -2.23076       -2.21803
C          5.22376       -3.70344       -1.78655
C          3.82932       -4.21775       -1.41599
N          3.82091       -5.62828       -1.28049
N          2.85624       -3.70160       -2.46323
C          3.07698       -2.65897       -3.26406
N          2.12845       -2.33516       -4.21155
C          1.83810       -1.00263       -4.67601
C          1.19620       -0.03495       -3.55766
C          1.85860        1.38224       -3.27766
C          1.93093        2.41541       -4.47392
C          1.92046        3.96181       -4.11473
C          3.03967        4.57916       -3.18175
C          4.56962        4.54489       -3.58623
C          5.01718        5.17638       -4.95655
F          4.49310        6.40010       -5.11437
F          6.35782        5.26683       -4.95861
F          4.64229        4.39597       -5.98722
F          5.21174        5.22083       -2.60295
F          4.99868        3.25033       -3.56419
F          2.69233        5.87443       -3.00915
F          2.96713        3.94805       -1.97446
F          1.96353        4.61017       -5.30601
F          0.73440        4.23893       -3.52262
F          3.03722        2.16403       -5.21335
F          0.83908        2.20681       -5.25879
F          1.12198        1.90334       -2.27185
F          3.12197        1.14472       -2.81460
F         -0.11106        0.11716       -3.82822
F          1.29381       -0.69557       -2.35911
F          2.98635       -0.44126       -5.16433
F          0.96235       -1.12647       -5.68668
N          4.21200       -1.97094       -3.19818
H          4.94494        0.27274        1.29740
H          4.05239        1.08652       -0.02854
H          3.15616       -1.11544       -0.77173
H          4.06930       -1.93593        0.51246
H          6.22745       -1.32642       -0.52019
H          5.45161       -0.18506       -1.60651
H          6.22075       -2.11219       -2.79002
H          5.88384       -3.86906       -0.92707
H          5.60731       -4.32774       -2.60898
H          3.49201       -3.78403       -0.46426
H          4.07911       -6.15412       -2.11238
H          3.01096       -6.02731       -0.81546
H          1.92134       -4.09889       -2.44043
H          1.34989       -2.97976       -4.32538
H          4.36072       -1.24828       -3.89628
