62

C          0.39961       -1.37309       -5.25565
C          1.90433       -1.22094       -5.49164
C          2.50938       -0.00250       -4.78513
C          4.01060        0.16909       -5.03741
C          4.62007        1.37938       -4.32186
C          6.11014        1.57305       -4.62138
C          6.73140        2.77236       -3.89719
C          8.20502        2.98735       -4.26353
C          8.80877        4.20577       -3.55558
C         10.32812        4.44962       -3.79006
C         11.23193        3.40794       -3.07571
S         11.86371        4.19326       -1.53406
C         11.36572        5.74601       -2.07015
N         10.67464        5.73937       -3.17687
C         11.66654        7.02072       -1.34485
C         11.88463        8.21223       -2.29725
O         10.73315        8.36994       -3.11573
Si        10.51010        9.66091       -4.23048
C         11.94499        9.64876       -5.43527
C          8.89457        9.20642       -5.04997
C         10.42322       11.25953       -3.26015
C         10.58618        4.60310       -5.32635
O         10.40714        5.70076       -5.81703
C         11.02833        3.40759       -6.12752
H         -0.00089       -2.25735       -5.76943
H         -0.15345       -0.49653       -5.62426
H          0.17144       -1.48001       -4.18474
H          2.10197       -1.14698       -6.57453
H          2.42578       -2.13185       -5.15212
H          2.32674       -0.08338       -3.69899
H          1.97825        0.90881       -5.11228
H          4.18834        0.26090       -6.12356
H          4.54177       -0.74620       -4.72169
H          4.47432        1.27328       -3.23264
H          4.07019        2.29144       -4.61328
H          6.24682        1.69647       -5.71002
H          6.66142        0.65586       -4.34895
H          6.63854        2.63655       -2.80583
H          6.16115        3.68505       -4.14104
H          8.28147        3.11220       -5.35599
H          8.77283        2.07324       -4.01602
H          8.65612        4.12646       -2.46577
H          8.28351        5.11660       -3.88366
H         12.11084        3.12154       -3.66609
H         10.67964        2.50181       -2.80407
H         10.39657        6.66347       -3.57226
H         12.54275        6.88648       -0.69647
H         10.80540        7.23608       -0.68899
H         12.78637        8.03803       -2.91250
H         12.06508        9.10844       -1.68100
H         12.02181        8.68020       -5.94897
H         12.90574        9.86477       -4.94708
H         11.79395       10.42065       -6.20398
H          8.97934        8.24909       -5.58322
H          8.61211        9.97221       -5.78628
H          8.07883        9.13284       -4.31787
H         11.36978       11.49064       -2.75155
H          9.62400       11.22729       -2.50714
H         10.20894       12.09839       -3.93807
H         10.70806        2.45020       -5.69974
H         12.13028        3.40464       -6.17303
H         10.66116        3.50925       -7.15471
