107

C          0.44618       -0.18782       -1.08719
C          1.97081       -0.05073       -1.06610
C          2.47127        1.02252       -0.09286
C          3.99655        1.16130       -0.05835
C          4.49577        2.22353        0.92639
C          6.02144        2.35693        0.96604
C          6.52253        3.39325        1.97679
C          8.04739        3.53680        2.00383
C          8.55183        4.56183        3.02443
C         10.07205        4.74643        3.00581
C         10.57981        5.79334        4.00234
C         12.08668        6.04662        3.90077
C         12.60374        7.11925        4.86469
C         14.07596        7.47315        4.63411
C         14.61337        8.55165        5.58007
C         16.03102        9.00660        5.22158
C         16.61057       10.04568        6.18706
C         17.96134       10.60017        5.71652
C         18.59739       11.62229        6.67248
C         19.17348       10.93602        7.91715
N         19.66905       11.89450        8.92465
C         19.06804       12.42880       10.01068
N         19.90333       13.32208       10.56941
N         21.00795       13.35639        9.84759
N         20.88118       12.50969        8.85432
C         21.94417       12.20866        7.86608
C         23.12856       13.16372        7.98521
C         24.20139       12.80853        6.94469
C         25.41822       13.73985        7.01807
C         26.50805       13.38741        5.99972
C         27.73652       14.30071        6.08229
C         28.82808       13.94820        5.06595
C         30.06431       14.84931        5.15617
C         31.15208       14.50480        4.13230
C         32.38338       15.40910        4.22834
C         17.71349       12.09733       10.53971
C         16.80082       13.33079       10.69347
C         16.36411       13.92164        9.36372
F         15.73268       12.99527        8.58536
F         15.52989       14.95997        9.53233
F         17.43813       14.36692        8.63505
H          0.11958       -0.96262       -1.79456
H         -0.03588        0.75611       -1.38266
H          0.05629       -0.45913       -0.09462
H          2.33448        0.18275       -2.08125
H          2.42478       -1.02046       -0.80003
H          2.10341        0.79153        0.92278
H          2.02125        1.99507       -0.36046
H          4.36462        1.40069       -1.07181
H          4.44513        0.18601        0.20121
H          4.12504        1.98348        1.93869
H          4.05056        3.20050        0.66758
H          6.39103        2.62056       -0.04072
H          6.46713        1.37435        1.20150
H          6.16253        3.12234        2.98506
H          6.06915        4.37435        1.74958
H          8.40309        3.82137        0.99764
H          8.50389        2.55397        2.21647
H          8.22903        4.26115        4.03685
H          8.06741        5.53549        2.83134
H         10.38736        5.03577        1.98749
H         10.56343        3.77836        3.20795
H         10.32335        5.48080        5.02998
H         10.04318        6.74388        3.83397
H         12.32859        6.34775        2.86610
H         12.63344        5.10320        4.07371
H         12.45870        6.78344        5.90643
H         11.99282        8.03239        4.75361
H         14.20085        7.81425        3.59131
H         14.69465        6.56349        4.72820
H         14.59200        8.17647        6.61873
H         13.93871        9.42550        5.55983
H         16.02656        9.42602        4.20074
H         16.70256        8.13103        5.18437
H         16.70036        9.58450        7.18781
H         15.90140       10.88306        6.30237
H         17.82192       11.09731        4.74477
H         18.66800        9.77343        5.52751
H         17.85004       12.36614        6.98327
H         19.39705       12.17383        6.15480
H         20.00379       10.25966        7.67027
H         18.41401       10.33593        8.43309
H         21.48296       12.27310        6.87026
H         22.25227       11.16530        8.04056
H         23.55051       13.11017        8.99895
H         22.78201       14.19787        7.83838
H         23.76692       12.85300        5.93092
H         24.53127       11.76591        7.09435
H         25.84194       13.70401        8.03635
H         25.09000       14.78163        6.86100
H         26.08566       13.43404        4.98067
H         26.82259       12.33977        6.14987
H         28.15760       14.25299        7.10183
H         27.42356       15.34902        5.93376
H         28.40864       14.00549        4.04600
H         29.13262       12.89622        5.20786
H         30.48905       14.78545        6.17364
H         29.75987       15.90252        5.02321
H         30.72621       14.56884        3.11660
H         31.45559       13.45258        4.26582
H         32.11786       16.46462        4.06765
H         33.14008       15.14030        3.47897
H         32.85715       15.33603        5.21865
H         17.85778       11.65281       11.53641
H         17.22688       11.33697        9.91567
H         17.29886       14.12156       11.27017
H         15.89256       13.03866       11.23630
