95

C          1.16330        0.99818       -7.62706
C          2.58776        1.06508       -7.07071
C          3.34834       -0.26052       -7.18504
C          4.76386       -0.21194       -6.60096
C          5.51505       -1.54341       -6.70170
C          6.90893       -1.51554       -6.06546
C          7.64085       -2.85900       -6.14720
C          9.00037       -2.86931       -5.43991
C          9.70538       -4.22717       -5.51949
C         11.02794       -4.28701       -4.74684
C         11.70416       -5.65872       -4.85345
C         12.97938       -5.75542       -4.01825
N         13.55824       -7.10320       -4.15282
C         14.84261       -7.45385       -4.04975
N         15.78542       -6.71461       -3.43175
C         15.59662       -5.91375       -2.32124
N         14.63800       -5.91499       -1.44498
N         14.96865       -4.91965       -0.51716
C         16.11281       -4.41664       -0.90645
O         16.58055       -5.00503       -2.07420
S         17.11467       -3.18917       -0.22289
C         16.20232       -2.85198        1.33177
C         16.96347       -1.76166        2.08707
C         16.31419       -1.43990        3.43905
C         17.05709       -0.33704        4.20061
C         16.47121       -0.04995        5.58627
C         17.20436        1.06566        6.33928
C         16.64392        1.31909        7.74064
N         15.25681       -8.60520       -4.64493
C         16.39168       -9.43007       -4.23168
C         17.75856       -8.85961       -4.66590
O         17.93928       -7.62445       -4.57634
N         18.71930       -9.70681       -5.07711
C         20.03213       -9.16469       -5.49009
C         20.25051       -9.19709       -7.00828
C         19.26116       -8.34456       -7.81163
C         19.54983       -8.36291       -9.31508
C         18.52893      -11.15492       -5.21451
H          0.64708        1.96335       -7.53204
H          0.56157        0.24631       -7.09484
H          1.16258        0.72540       -8.69305
H          2.55496        1.37291       -6.01166
H          3.15294        1.85403       -7.59552
H          3.39907       -0.56148       -8.24662
H          2.77250       -1.05391       -6.67581
H          4.70826        0.09414       -5.54112
H          5.34487        0.57641       -7.11139
H          5.60125       -1.83642       -7.76299
H          4.91453       -2.33513       -6.21944
H          6.81775       -1.21496       -5.00675
H          7.51992       -0.73341       -6.54932
H          7.77625       -3.13849       -7.20684
H          7.00169       -3.64539       -5.70825
H          8.86085       -2.59157       -4.38061
H          9.65058       -2.09026       -5.87452
H          9.88786       -4.48219       -6.57806
H          9.02828       -5.00880       -5.13269
H         10.84472       -4.04950       -3.68530
H         11.71378       -3.50844       -5.12221
H         11.93577       -5.87704       -5.90948
H         10.99534       -6.43567       -4.51476
H         12.78243       -5.55601       -2.95320
H         13.73117       -5.02807       -4.35959
H         12.90241       -7.84860       -4.37244
H         16.77483       -6.92566       -3.79690
H         16.14993       -3.78886        1.90221
H         15.18233       -2.53983        1.07256
H         17.00862       -0.84803        1.47139
H         18.00591       -2.08206        2.25019
H         16.28261       -2.35498        4.05527
H         15.26400       -1.13905        3.28328
H         17.04959        0.58890        3.59924
H         18.11929       -0.61990        4.30605
H         16.49655       -0.97427        6.19027
H         15.40391        0.21607        5.48735
H         17.15491        1.99521        5.74716
H         18.27560        0.81088        6.41057
H         15.58176        1.60367        7.70163
H         17.18493        2.12847        8.24976
H         16.72164        0.42060        8.37071
H         14.70168       -8.94070       -5.42415
H         16.20705      -10.43300       -4.62852
H         16.40384       -9.51513       -3.13270
H         20.80297       -9.75893       -4.97706
H         20.08442       -8.13706       -5.11364
H         20.23335      -10.23805       -7.37426
H         21.27754       -8.83957       -7.18621
H         19.28729       -7.30928       -7.43544
H         18.23270       -8.70385       -7.63393
H         20.55524       -7.97502       -9.53290
H         18.83016       -7.74422       -9.86709
H         19.49372       -9.38252       -9.72387
H         17.98707      -11.41491       -6.13606
H         18.01196      -11.58102       -4.34725
H         19.51772      -11.62374       -5.26375
