80

C          1.14568       -3.27917       -2.66083
C          2.65979       -3.36044       -2.46027
C          3.06168       -3.83020       -1.05836
C          4.57748       -3.88980       -0.85296
C          4.99681       -4.31914        0.55703
C          6.51781       -4.31214        0.74306
C          6.94891       -4.61239        2.16958
O          8.37785       -4.49371        2.24787
C          8.87574       -4.52584        3.56533
C         10.40112       -4.31456        3.55648
C         10.98218       -4.56808        4.97901
C         12.50555       -4.83576        4.98075
C         13.10396       -5.30150        6.32075
C         12.63274       -6.67839        6.82113
C         12.98642       -7.86389        5.90831
C         14.49294       -8.06886        5.71183
C         14.78633       -9.24694        4.78748
O         16.20766       -9.42634        4.58327
C         16.77842       -8.61928        3.63946
O         16.15915       -7.78374        3.00236
C         18.22672       -8.91684        3.51962
C         18.99577       -8.25089        2.65119
C         10.59106       -3.42892        5.92709
N         11.05193       -2.10023        5.36066
C         10.49276       -1.81048        3.97742
C         10.88592       -2.93614        3.01912
C         10.47878       -2.60635        1.56693
C         11.30454       -1.49476        0.90612
C         11.01360       -1.38775       -0.60165
N         11.80338       -0.42692       -1.35527
O         11.10196       -0.21531        1.55219
H          0.89200       -2.93886       -3.67385
H          0.68686       -2.57678       -1.94906
H          0.67029       -4.25964       -2.51035
H          3.11070       -2.37187       -2.65171
H          3.09632       -4.04221       -3.20933
H          2.62383       -4.82526       -0.86624
H          2.61762       -3.15315       -0.30722
H          5.00989       -2.89667       -1.06874
H          5.02095       -4.57949       -1.59186
H          4.59718       -5.32452        0.77249
H          4.53271       -3.64025        1.29393
H          6.91473       -3.32191        0.46339
H          6.98660       -5.04147        0.06360
H          6.64017       -5.62864        2.48116
H          6.48172       -3.89339        2.87276
H          8.66115       -5.50353        4.04522
H          8.35373       -3.75902        4.17983
H         10.81741       -5.08561        2.88845
H         10.48789       -5.46497        5.38664
H         13.06266       -3.94290        4.64388
H         12.71072       -5.58977        4.20552
H         12.90998       -4.55495        7.11036
H         14.19825       -5.31056        6.20919
H         11.54302       -6.66939        6.99089
H         13.08146       -6.84691        7.81299
H         12.50379       -7.74364        4.92278
H         12.54528       -8.77505        6.34311
H         14.97961       -8.23973        6.68553
H         14.95155       -7.17261        5.26964
H         14.30264       -9.10212        3.81010
H         14.44807      -10.19562        5.22518
H         18.62334       -9.70040        4.16639
H         18.56596       -7.47515        2.01539
H         20.05943       -8.46480        2.55290
H         11.05130       -3.53290        6.91787
H          9.50483       -3.34273        6.05370
H         12.08011       -2.10982        5.29767
H         10.80392       -1.33913        6.00457
H         10.89110       -0.84360        3.64639
H          9.40364       -1.72493        4.09814
H         11.99175       -2.97787        3.01468
H          9.40844       -2.35769        1.51119
H         10.59484       -3.52658        0.97440
H         12.38136       -1.70009        1.04470
H          9.94280       -1.13335       -0.72300
H         11.14087       -2.38053       -1.06049
H         11.78771        0.49390       -0.91568
H         12.78043       -0.71495       -1.41286
H         10.28774        0.17145        1.18643
