53

C          7.69073       -4.14513       -2.19612
C          7.11018       -2.73275       -2.08532
C          5.70179       -2.62386       -2.68487
C          5.05429       -1.25826       -2.53556
O          5.86479       -0.28728       -3.24251
C          5.36207        1.03342       -3.15518
N          6.27043        1.92260       -3.84698
C          7.55889        2.09829       -3.46687
N          8.01702        1.29601       -2.48754
N          8.31596        3.04888       -4.03459
C          7.71130        4.05890       -4.93387
C          6.91846        5.16530       -4.21042
C          7.79728        6.01019       -3.26048
C          8.88398        6.86835       -3.91915
C          6.18029        6.00620       -5.26182
C          9.77061        3.09811       -3.79085
C         10.59302        1.95991       -4.43235
C         10.65845        1.89843       -5.96002
C         11.36503        3.08918       -6.69510
Br        13.16771        3.44394       -6.03191
F         11.40211        2.87039       -8.01711
F         10.61632        4.22225       -6.50135
Br        11.56032        0.23235       -6.46992
F          9.37306        1.85743       -6.47997
H          8.69910       -4.19985       -1.76491
H          7.75960       -4.46624       -3.24560
H          7.06307       -4.87607       -1.66671
H          7.78340       -2.02605       -2.60036
H          7.08016       -2.42572       -1.02514
H          5.03490       -3.35459       -2.19904
H          5.72555       -2.89185       -3.75354
H          4.98196       -0.96197       -1.47150
H          4.03659       -1.25396       -2.96307
H          5.27108        1.34630       -2.09704
H          4.37462        1.12864       -3.63703
H          5.99327        2.28232       -4.75246
H          7.54934        0.39245       -2.38130
H          8.93041        1.43115       -2.07875
H          7.08636        3.55320       -5.68743
H          8.53653        4.48921       -5.51005
H          6.15697        4.67558       -3.57956
H          8.25337        5.34482       -2.50771
H          7.12399        6.66727       -2.68882
H          9.60233        6.28021       -4.51061
H          9.46234        7.40187       -3.15390
H          8.45825        7.62643       -4.58950
H          6.87005        6.45375       -5.99126
H          5.62689        6.82482       -4.78344
H          5.45554        5.40030       -5.82435
H          9.96709        3.09496       -2.70692
H         10.11244        4.07763       -4.13639
H         10.20823        0.98239       -4.11166
H         11.62102        2.03344       -4.05249
