67

C          0.39821        2.02384        0.35018
C          1.89042        1.71212        0.49268
C          2.64752        1.84454       -0.83668
C          4.13661        1.53067       -0.67727
S          4.93032        1.74932       -2.31774
C          6.55469        1.32223       -1.94521
N          7.10687        0.95165       -0.80527
N          8.43745        0.72067       -1.08031
C          8.61681        0.96156       -2.35197
O          7.46199        1.35427       -2.98041
C          9.84358        0.84429       -3.10691
C          9.97073        1.14954       -4.46807
C         11.21011        1.01347       -5.07817
C         12.35677        0.56193       -4.41167
N         12.17779        0.22724       -3.07974
C         10.98126        0.37089       -2.45910
C         13.16274       -0.45308       -2.22392
C         12.67582       -1.89405       -1.89979
O         11.54836       -2.23835       -2.21896
C         13.61176       -2.76462       -1.15410
C         14.95797       -2.42351       -0.92233
C         15.77707       -3.27418       -0.18201
C         15.26093       -4.46666        0.33499
C         13.92432       -4.81497        0.10563
C         13.10346       -3.97244       -0.63614
C         13.69670        0.46047       -5.17337
C         14.95407        1.05981       -4.45923
C         15.00745        2.57911       -4.18796
C         13.93780        3.08927       -3.21096
C         16.41183        2.93189       -3.67417
C         13.95429       -1.02231       -5.57739
O         14.27804       -1.82784       -4.44793
C         13.58222        1.19096       -6.53734
H         -0.11773        1.93683        1.31525
H         -0.09049        1.33292       -0.35216
H          0.23671        3.04593       -0.02208
H          2.02130        0.69053        0.88602
H          2.34235        2.38795        1.23713
H          2.52306        2.86777       -1.22853
H          2.20249        1.16590       -1.58318
H          4.30945        0.49635       -0.35251
H          4.62819        2.21073        0.03051
H          9.11372        1.50441       -5.03992
H         11.29781        1.28428       -6.12458
H         10.94458        0.10947       -1.40484
H         13.26853        0.12070       -1.29239
H         14.12396       -0.51302       -2.72295
H         15.38462       -1.50539       -1.32735
H         16.81995       -3.00883       -0.00864
H         15.90259       -5.12727        0.91908
H         13.52345       -5.74328        0.51341
H         12.05765       -4.22049       -0.81791
H         15.79444        0.80884       -5.12608
H         15.19227        0.53988       -3.52263
H         14.86842        3.11001       -5.14428
H         13.99393        2.56562       -2.24337
H         12.91606        2.98248       -3.60045
H         14.08859        4.15754       -3.00558
H         16.61478        2.44640       -2.70645
H         16.51527        4.01506       -3.52720
H         17.19311        2.61302       -4.37797
H         14.78728       -1.02001       -6.30241
H         13.05364       -1.40607       -6.08824
H         14.36403       -2.74993       -4.73426
H         13.24489        2.22834       -6.42988
H         12.91079        0.67561       -7.23745
H         14.57522        1.21447       -7.00270
