104

C          2.50426        3.60468        1.75468
C          4.02465        3.78129        1.71947
C          4.76628        2.60958        2.38057
C          6.28218        2.81013        2.34340
S          7.06720        1.33235        3.10074
C          8.70787        1.84183        3.15844
N          9.27214        2.98208        2.81817
N         10.61829        2.85285        3.09193
C         10.80637        1.65201        3.57175
O          9.62522        0.93631        3.64945
C         12.00228        0.97846        4.03594
N         11.77274       -0.28643        4.54213
C         12.71874       -1.08311        5.04088
C         14.05133       -0.66322        5.08011
C         14.35326        0.64974        4.55303
C         13.30778        1.47698        4.02084
C         13.57778        2.86698        3.52483
C         13.45779        3.90256        4.67056
C         13.58973        5.34641        4.18164
C         13.47717        6.35549        5.32907
C         13.54200        7.82009        4.88324
C         13.49484        8.79953        6.06061
C         13.49943       10.27562        5.65155
C         13.54301       11.23032        6.84948
C         13.48850       12.71365        6.47013
C         13.64703       13.65095        7.67174
C         13.54943       15.13855        7.31901
C         13.80289       16.06608        8.51182
C         13.66902       17.55622        8.17867
C         13.98975       18.47258        9.36256
C         15.70204        1.07939        4.59290
C         16.67590        0.24995        5.11131
C         16.36883       -1.03333        5.61838
C         15.07263       -1.51631        5.62498
C         14.70911       -2.87606        6.17458
C         15.86740       -3.79344        6.57731
C         15.31362       -5.13454        7.07908
S         16.51046       -6.48996        7.06397
C         16.41287       -7.03728        5.35146
S         15.44013       -6.28798        4.21241
N         17.20172       -8.10340        5.09065
C         18.01905       -8.77986        6.11110
C         19.45618       -8.25780        6.18475
C         17.27852       -8.66930        3.73209
C         16.24574       -9.77096        3.48977
H          1.99732        4.45439        1.27917
H          2.13317        3.53163        2.78740
H          2.19388        2.69306        1.22357
H          4.30202        4.71924        2.22802
H          4.36352        3.88505        0.67582
H          4.49835        1.67014        1.86868
H          4.43225        2.50533        3.42584
H          6.59852        3.69125        2.91636
H          6.66262        2.89972        1.31740
H         10.80748       -0.61810        4.52207
H         12.38436       -2.05346        5.39983
H         12.85455        3.12786        2.74242
H         14.57640        2.92034        3.07163
H         14.21958        3.68883        5.43876
H         12.47964        3.77773        5.16212
H         12.80594        5.54383        3.43150
H         14.55538        5.47884        3.66377
H         14.28039        6.16299        6.06218
H         12.52909        6.18482        5.86864
H         12.70630        8.02950        4.19310
H         14.46558        7.98904        4.30275
H         14.35439        8.60423        6.72595
H         12.59474        8.59573        6.66710
H         12.60453       10.48935        5.04094
H         14.36592       10.47350        4.99634
H         14.46310       11.03739        7.42941
H         12.70556       10.99954        7.53149
H         12.53313       12.92614        5.95874
H         14.28066       12.93246        5.73243
H         14.62158       13.45496        8.15338
H         12.88310       13.40624        8.43092
H         12.55186       15.34881        6.89448
H         14.27240       15.37254        6.51752
H         14.81504       15.87330        8.91056
H         13.10531       15.81201        9.32981
H         12.64483       17.75747        7.82153
H         14.33576       17.80013        7.33396
H         13.32505       18.27079       10.21608
H         13.87535       19.53227        9.09629
H         15.02369       18.32738        9.71014
H         15.97525        2.06285        4.21762
H         17.71179        0.59066        5.13369
H         17.17705       -1.64836        6.01160
H         14.12510       -3.42416        5.41405
H         14.03313       -2.73713        7.03845
H         16.49378       -3.33683        7.35873
H         16.50115       -3.97901        5.69844
H         14.47168       -5.46536        6.45247
H         14.97914       -5.07332        8.12534
H         18.01153       -9.85201        5.86632
H         17.51640       -8.68433        7.08390
H         19.97653       -8.37797        5.22502
H         20.01734       -8.81982        6.94342
H         19.47833       -7.19553        6.45964
H         18.30015       -9.05712        3.60696
H         17.13473       -7.84435        3.02295
H         16.35903      -10.59914        4.20303
H         16.37136      -10.18007        2.47804
H         15.22772       -9.37114        3.57458
