56

C          1.43630       -1.44113        2.70089
C          2.36169       -1.06024        2.02169
C          3.48644       -0.63030        1.20344
C          4.45730       -1.78742        0.88867
C          5.64668       -1.33157        0.03794
C          6.65117       -2.43060       -0.33119
N          7.22417       -3.11154        0.84917
C          6.84882       -4.39750        0.92636
N          7.17601       -5.23053        1.91617
C          6.91692       -6.67740        1.93365
C          7.97715       -7.37142        2.79076
C          7.76933       -8.88701        2.85096
S          9.10020       -9.61789        3.83610
O         10.33745       -9.52368        3.08969
O          8.97804       -9.10562        5.17637
O          8.63323      -11.16648        3.85912
N          6.10895       -4.72417       -0.14271
C          6.05549       -3.63495       -1.13458
C          6.84121       -4.00217       -2.39721
C          6.67038       -2.94553       -3.49354
C          7.35249       -3.25845       -4.82992
C          8.82743       -2.74537       -5.04499
C         10.01673       -3.28340       -4.15906
C         10.35258       -4.82068       -4.17535
F         10.43671       -5.28925       -5.42409
F         11.52624       -5.00840       -3.54965
F          9.40748       -5.52374       -3.50468
F         11.12481       -2.63098       -4.57341
F          9.77927       -2.93168       -2.85186
F          9.15972       -2.96615       -6.33762
F          8.80437       -1.39491       -4.82490
F          7.32267       -4.60296       -5.10105
F          6.63730       -2.63449       -5.81829
H          0.60652       -1.75648        3.29824
H          4.02742        0.18005        1.72122
H          3.10915       -0.19311        0.26336
H          3.89003       -2.58302        0.38000
H          4.80927       -2.21599        1.83990
H          6.19237       -0.52635        0.55774
H          5.29461       -0.88687       -0.90830
H          7.47781       -1.98517       -0.90458
H          7.87914       -2.67427        1.48598
H          7.63748       -4.83532        2.73018
H          6.96992       -7.04948        0.89866
H          5.90399       -6.87574        2.32103
H          7.94630       -6.96777        3.81567
H          8.97418       -7.15322        2.37855
H          7.81630       -9.35884        1.85976
H          6.82816       -9.16619        3.34449
H          9.28507      -11.68023        3.34311
H          5.64238       -5.61490       -0.25790
H          5.00266       -3.43378       -1.38525
H          6.47731       -4.97027       -2.77136
H          7.89442       -4.14272       -2.12391
H          7.01449       -1.95240       -3.17068
H          5.60307       -2.84300       -3.74238
