52

Br         0.62484       -0.89612       -2.22171
C          2.14063       -0.33859       -1.12395
C          3.21323        0.31197       -1.99287
C          4.39313        0.73392       -1.10091
N          5.27534        1.80565       -1.68099
C          4.95674        3.10282       -1.35545
C          5.78252        4.15140       -1.76182
C          6.96699        3.89593       -2.43123
C          7.28107        2.57518       -2.74322
C          6.41770        1.54208       -2.40185
C          6.81238        0.14922       -2.94757
C          6.31555       -0.13084       -4.44059
C          6.96311        0.60043       -5.69147
C          8.49651        0.47603       -6.07485
C          9.19118       -0.93159       -6.27118
C          8.70446       -1.95032       -7.38032
C          8.71883       -1.57309       -8.91736
C         10.07621       -1.12459       -9.57636
F         11.06268       -1.98456       -9.27567
F          9.91015       -1.09342      -10.90715
F         10.42417        0.10770       -9.15902
F          8.31196       -2.69597       -9.55855
F          7.80226       -0.59437       -9.13520
F          9.48489       -3.04547       -7.21592
F          7.42032       -2.29349       -7.09053
F         10.50081       -0.66522       -6.49413
F          9.08967       -1.59144       -5.08424
F          8.63998        1.19825       -7.20792
F          9.21040        1.10402       -5.09198
F          6.23379        0.19949       -6.75362
F          6.74726        1.94193       -5.51270
F          6.37161       -1.45922       -4.63782
F          4.99972        0.25333       -4.46597
F          8.16376        0.04559       -2.88933
F          6.31203       -0.87819       -2.20818
C          3.67607        3.41843       -0.61863
C          3.58663        3.16240        0.87328
C          4.51406        2.92097        1.80574
Br         6.37977        2.76678        1.51193
Br         1.78026        3.26814        1.48535
H          2.50183       -1.24421       -0.62279
H          1.73635        0.35295       -0.37424
H          2.78841        1.18085       -2.51756
H          3.54363       -0.39119       -2.76519
H          5.02647       -0.11232       -0.84069
H          4.02904        1.14732       -0.15558
H          5.48942        5.16711       -1.50052
H          7.63983        4.70502       -2.71470
H          8.19533        2.33544       -3.27938
H          2.83793        2.89222       -1.09879
H          3.47089        4.48791       -0.78284
H          4.25685        2.78494        2.85353
