76

S          1.70494        4.68387       -2.56240
C          3.19469        4.26702       -3.55971
C          4.38252        4.04183       -2.65333
O          5.34852        4.76414       -2.56481
O          4.18660        2.92687       -1.87792
C          5.15985        2.69314       -0.82620
C          4.87502        3.63183        0.35755
N          3.40764        3.90376        0.60588
C          2.62415        2.75467        1.22633
C          3.24850        2.08554        2.45171
O          3.41023        3.08365        3.46044
C          4.51918        2.86292        4.37289
C          5.84126        3.12836        3.69624
C          6.27659        4.44981        3.49487
C          7.42615        4.70700        2.74521
C          8.14968        3.64995        2.17903
C          7.74090        2.33028        2.39223
C          6.59884        2.07440        3.15953
C          2.34466        0.94318        2.92439
C          3.20410        5.21852        1.35232
C          3.52672        6.44923        0.51485
C          3.16984        7.71221        1.31266
N          3.92397        7.76350        2.56358
C          3.42618        8.80186        3.48668
C          4.28214        8.92126        4.72212
C          3.80123        8.56553        5.98734
C          4.57540        8.72571        7.13934
C          5.86530        9.24999        7.03256
C          6.37535        9.60197        5.78160
C          5.58937        9.43659        4.63832
O          6.05231        9.76518        3.37998
C          5.15543        1.19953       -0.53354
O          5.67529        0.50320       -1.67542
C          6.93239       -0.03539       -1.53742
O          7.60520        0.07446       -0.53458
C          7.32740       -0.78234       -2.78709
S          6.56306       -2.44739       -2.82380
H          1.21598        3.42478       -2.47627
H          3.40047        5.12444       -4.20800
H          2.97826        3.38573       -4.17448
H          6.15717        2.96825       -1.20102
H          5.32378        4.60394        0.13874
H          5.32305        3.25772        1.28247
H          2.97188        4.04487       -0.33030
H          2.47484        2.01130        0.43286
H          1.64252        3.17266        1.48634
H          4.23327        1.66904        2.17691
H          4.47928        1.84131        4.78640
H          4.33645        3.57066        5.19113
H          5.70705        5.28024        3.91988
H          7.76252        5.73504        2.60347
H          9.04283        3.85330        1.58713
H          8.30403        1.50242        1.96058
H          6.29390        1.04150        3.34548
H          1.34504        1.31834        3.18261
H          2.24494        0.16117        2.15832
H          2.77094        0.47376        3.81968
H          3.79479        5.17746        2.26946
H          2.14497        5.22790        1.64298
H          2.95649        6.44100       -0.42679
H          4.59354        6.48631        0.24364
H          2.09630        7.68872        1.56597
H          3.31447        8.60066        0.66517
H          4.90088        7.98322        2.35284
H          2.40299        8.52543        3.78405
H          3.36245        9.79309        2.99075
H          2.78617        8.17044        6.06721
H          4.17132        8.45414        8.11408
H          6.48017        9.39067        7.92173
H          7.38438       10.01272        5.69133
H          6.91768       10.19685        3.46644
H          4.14166        0.80692       -0.37412
H          5.78495        0.99503        0.34443
H          8.41822       -0.85546       -2.84116
H          6.94214       -0.27304       -3.67890
H          7.31426       -2.96967       -1.82501
