46

N          4.94522       -2.60077       -0.18313
C          4.63544       -1.30103        0.40838
C          3.11330       -1.10022        0.46104
C          2.45610       -2.10484        1.41131
C          0.95254       -2.11700        1.37836
N          0.37397       -0.88719        1.32706
C         -0.95526       -0.68017        1.28299
C         -1.80155       -1.76621        1.26964
C         -1.28138       -3.07357        1.31088
C          0.12565       -3.25536        1.38708
C          0.76058       -4.61462        1.49605
C          1.04282       -5.07174        2.98113
N         -0.22178       -5.60900        3.51930
N          2.19423       -5.97512        2.91124
N          1.43614       -3.93995        3.81835
C         -2.21046       -4.25783        1.28944
C         -3.69401       -3.97708        0.99162
C         -4.45852       -5.24770        0.84950
C         -5.45447       -5.68147        1.62965
F         -5.91049       -4.99883        2.67812
F         -6.10341       -6.81962        1.45800
F         -4.07535       -6.04045       -0.18981
O          2.77909        0.22509        0.94335
H          5.85460       -2.93944        0.12453
H          4.97509       -2.55301       -1.20117
H          5.07749       -0.43815       -0.12917
H          5.02931       -1.26742        1.43488
H          2.70188       -1.23355       -0.55872
H          2.77554       -1.88846        2.44383
H          2.86252       -3.09217        1.16815
H          1.04243       -0.09343        1.27481
H         -1.29089        0.35471        1.25152
H         -2.87352       -1.58959        1.22433
H          1.72543       -4.61267        0.97606
H          0.13739       -5.37215        1.00264
H         -0.50510       -6.44100        2.99649
H         -0.08202       -5.90775        4.48781
H          2.08311       -6.66906        2.17042
H          2.29738       -6.48855        3.78930
H          0.72131       -3.71082        4.50539
H          2.32641       -4.11959        4.27603
H         -2.11359       -4.76438        2.26501
H         -1.83570       -4.98122        0.54756
H         -3.79886       -3.40443        0.05329
H         -4.15899       -3.38515        1.79245
H          3.19533        0.88921        0.36856
