56

C          3.37128       -4.84290       -5.59318
C          2.87913       -3.51267       -5.05570
O          3.30008       -3.32996       -3.65469
C          4.47667       -2.74542       -3.44478
O          5.23693       -2.35362       -4.32373
C          4.77036       -2.60231       -1.95540
C          6.28120       -2.53820       -1.68545
N          6.85233       -1.41218       -2.43390
C          7.62042       -0.57459       -1.79372
S          7.87895       -0.93845       -0.14312
C          6.65341       -2.35065       -0.18837
C          7.19210       -3.62360        0.49367
C          7.47190       -3.37666        1.98644
O          8.33248       -2.25842        2.21910
C          6.21242       -4.80167        0.36296
C          8.24430        0.62080       -2.44803
C          7.20957        1.53116       -3.13823
O          6.30599        2.06431       -2.14533
C          5.01225        1.61878       -2.16531
O          4.60464        0.73116       -2.88750
C          4.19759        2.34333       -1.12459
S          4.23342        1.40185        0.45290
C          7.90750        2.71656       -3.81144
O          6.95937        3.66697       -4.31669
C          6.26253        3.28855       -5.43172
O          6.46400        2.25460       -6.03340
C          5.19579        4.30399       -5.76301
S          3.73035        4.05749       -4.68680
H          2.97318       -4.99177       -6.60630
H          3.02480       -5.67602       -4.96798
H          4.46667       -4.87007       -5.65577
H          1.78553       -3.47022       -4.99805
H          3.25456       -2.66326       -5.63919
H          4.31169       -3.43459       -1.40854
H          4.29263       -1.67092       -1.60981
H          6.75899       -3.45430       -2.07461
H          6.53281       -1.34921       -3.41775
H          5.78311       -1.96981        0.37078
H          8.14130       -3.89582       -0.00275
H          7.87984       -4.29379        2.43980
H          6.52785       -3.14521        2.50542
H          9.25552       -2.55591        2.19160
H          5.23085       -4.56221        0.79809
H          6.60661       -5.67511        0.89907
H          6.06021       -5.11270       -0.67881
H          8.96698        0.26808       -3.20233
H          8.80332        1.19260       -1.69464
H          6.62209        0.97341       -3.88057
H          3.16587        2.45587       -1.47100
H          4.62406        3.32760       -0.90494
H          3.26023        0.52327        0.11458
H          8.55108        2.34769       -4.62402
H          8.50591        3.28190       -3.08533
H          4.91538        4.21527       -6.81719
H          5.54022        5.32287       -5.54966
H          3.38576        2.84965       -5.19452
