72

C          7.30138       -6.81255       -6.23346
C          6.87492       -6.30675       -4.85298
C          7.91185       -6.58214       -3.75775
C          7.48440       -6.08681       -2.37232
C          8.51916       -6.35933       -1.27524
C          8.07765       -5.86403        0.10677
C          9.10604       -6.16078        1.20673
C          8.63649       -5.64590        2.55812
O          9.59530       -5.99903        3.62194
C         10.58533       -5.13402        3.84360
O         10.78605       -4.08256        3.27420
C         11.44613       -5.64999        5.00852
N         12.81736       -5.14471        4.95652
N         13.80651       -6.05465        4.70924
C         14.90314       -5.34401        4.69260
N         14.64372       -4.01671        4.92647
C         13.29622       -3.89287        5.08225
C         12.56793       -2.62217        5.33472
C         11.61987       -2.59942        6.56512
C         12.26455       -3.15740        7.85332
C         13.53118       -2.44731        8.34395
C         11.07618       -1.17341        6.72966
C         15.63953       -2.93979        4.80941
C         15.66206       -2.32503        3.40680
O         16.01839       -3.31465        2.42857
C         14.96378       -3.89275        1.73789
O         13.80564       -3.63557        1.98653
C         15.46868       -4.84661        0.68813
C         14.48189       -5.98116        0.38097
C         14.98809       -6.90338       -0.72985
H          6.54090       -6.59231       -6.99492
H          7.45918       -7.90140       -6.22828
H          8.24242       -6.34426       -6.55919
H          5.91647       -6.77365       -4.56909
H          6.67726       -5.22219       -4.90050
H          8.87056       -6.10969       -4.03679
H          8.11320       -7.66716       -3.71227
H          6.52726       -6.56218       -2.09468
H          7.27968       -5.00263       -2.41906
H          9.47658       -5.88010       -1.54547
H          8.72374       -7.44301       -1.22564
H          7.11279       -6.33120        0.36925
H          7.88973       -4.77758        0.06179
H         10.06941       -5.69079        0.95287
H          9.27983       -7.24637        1.27592
H          7.70584       -6.12759        2.88181
H          8.51065       -4.55519        2.56020
H         11.52500       -6.74103        4.98456
H         10.97707       -5.35816        5.95801
H         15.89707       -5.74245        4.51842
H         11.99298       -2.39980        4.42304
H         13.31629       -1.82542        5.44408
H         10.75333       -3.23909        6.33157
H         12.48560       -4.23084        7.72005
H         11.50150       -3.11612        8.64565
H         14.37241       -2.54902        7.64133
H         13.86581       -2.87793        9.29646
H         13.36679       -1.37479        8.51328
H         11.87830       -0.44793        6.92726
H         10.36926       -1.12572        7.56834
H         10.54584       -0.84450        5.82578
H         16.61223       -3.38665        5.05067
H         15.42884       -2.17078        5.56393
H         16.44477       -1.55598        3.37463
H         14.69161       -1.87951        3.14922
H         16.45375       -5.22881        0.99444
H         15.65456       -4.24466       -0.22002
H         13.50996       -5.54609        0.10636
H         14.30651       -6.56263        1.30124
H         15.13199       -6.35521       -1.67241
H         14.27215       -7.71263       -0.92277
H         15.94945       -7.36780       -0.46543
