91

C          5.10434       -1.67677       -2.64249
C          5.69125       -0.33195       -2.20713
C          5.62700       -0.10372       -0.69313
C          6.21760        1.23708       -0.24632
C          6.12497        1.47292        1.26443
C          6.76054        2.79054        1.71998
C          6.61762        3.03710        3.22515
C          7.34602        4.31090        3.67420
N          7.19116        4.59018        5.11132
C          6.22720        5.38765        5.60951
S          6.04484        5.71024        7.25189
S          5.18148        6.11248        4.33857
C          4.06818        7.14789        5.31720
C          2.82089        6.40544        5.81357
C          2.22643        7.12291        7.02919
N          1.02078        6.46652        7.57966
C         -0.29656        7.10682        7.39910
C         -1.20104        6.22558        6.53775
C         -1.37909        4.85673        7.20438
N         -0.17606        4.51263        7.97769
C          0.99302        5.17972        7.97590
N          2.08722        4.49454        8.39808
N          3.19892        5.00081        9.07785
C         -2.58254        4.77866        8.14751
O         -2.50309        3.52525        8.79823
C         -3.58012        3.28013        9.72339
C         -3.38016        1.91069       10.33967
C          8.18004        3.94204        5.99206
C          9.43923        4.79409        6.19100
C         10.49980        4.06947        7.02584
C         11.77843        4.89337        7.21470
C         12.86441        4.16475        8.01277
C         14.14390        4.98721        8.19812
C         15.24582        4.24529        8.96277
C         16.51614        5.07724        9.15649
H          5.15874       -1.80715       -3.73194
H          4.04688       -1.76419       -2.35067
H          5.64346       -2.51744       -2.18075
H          5.15544        0.48609       -2.71778
H          6.73963       -0.25916       -2.54168
H          6.15572       -0.92525       -0.17784
H          4.57547       -0.16884       -0.36059
H          5.70003        2.05731       -0.77381
H          7.27371        1.29558       -0.56186
H          6.60912        0.63509        1.79617
H          5.06450        1.45287        1.57200
H          6.30515        3.63078        1.16750
H          7.82980        2.79162        1.44528
H          7.01634        2.17443        3.78382
H          5.55188        3.11816        3.49246
H          7.00066        5.18270        3.09919
H          8.42511        4.22405        3.47779
H          3.81215        7.99078        4.65996
H          4.66554        7.52100        6.16394
H          3.10657        5.38301        6.09673
H          2.07184        6.32244        5.01147
H          1.91821        8.14375        6.77029
H          2.99502        7.21713        7.80887
H         -0.12760        8.08098        6.92915
H         -0.74584        7.28882        8.38864
H         -0.74921        6.10947        5.54282
H         -2.18176        6.70067        6.39410
H         -1.51069        4.07951        6.43380
H         -0.28880        3.70631        8.58943
H          1.96227        3.48978        8.49913
H          2.93647        5.75774        9.70852
H          3.95113        5.28379        8.42825
H         -3.51211        4.86900        7.55384
H         -2.56196        5.60893        8.88289
H         -4.54031        3.33692        9.17854
H         -3.58267        4.07189       10.49550
H         -3.37878        1.12936        9.56851
H         -4.19443        1.69435       11.04362
H         -2.43253        1.86042       10.89280
H          8.43640        2.97760        5.52776
H          7.69321        3.74160        6.95523
H          9.15341        5.73937        6.67807
H          9.86313        5.05990        5.20802
H         10.75409        3.10899        6.54355
H         10.07856        3.81204        8.01301
H         11.52864        5.84416        7.71655
H         12.18010        5.17189        6.22446
H         13.11201        3.21503        7.50658
H         12.46482        3.88262        9.00272
H         13.90162        5.92627        8.72653
H         14.52972        5.29061        7.20868
H         15.49347        3.31402        8.42538
H         14.85677        3.93139        9.94627
H         16.94428        5.38461        8.19070
H         17.28868        4.51283        9.69651
H         16.31069        5.99209        9.73242
