65

C         10.49879        8.51220        1.07877
C         10.39139        7.00861        0.81168
C         10.57592        6.63760       -0.66422
C         10.49149        5.13199       -0.93391
C         10.71497        4.75204       -2.40169
C         10.67365        3.24038       -2.64775
C         10.96696        2.83462       -4.09646
C         10.99911        1.31454       -4.28685
C         11.34477        0.86141       -5.71298
C         11.49447       -0.65538       -5.76557
O         11.69394       -1.21098       -7.08410
C         12.94524       -0.93172       -7.66644
C         13.27739       -2.02877       -8.65187
C         12.43904       -3.12926       -8.72223
N         12.71514       -4.14454       -9.57179
C         13.79531       -4.17103      -10.38123
C         14.65544       -3.08241      -10.34563
C         14.41063       -1.98969       -9.50165
C         15.32274       -0.79324       -9.55678
C         14.98882        0.08955      -10.77432
O         13.60099        0.36137      -10.74608
C         13.17359        1.28719      -11.75662
C         11.65947        1.38491      -11.68175
O         11.19577        1.89826      -10.43732
C         13.98408       -5.38510      -11.26857
C         12.93478       -6.37825      -11.10085
C         12.03576       -7.16506      -10.91015
H         10.35711        8.74338        2.14340
H          9.74025        9.07421        0.51359
H         11.48474        8.90130        0.78322
H          9.41007        6.64166        1.15765
H         11.14274        6.47213        1.41595
H         11.55370        7.01517       -1.01304
H          9.81737        7.16340       -1.27052
H          9.50723        4.75534       -0.60412
H         11.23755        4.60989       -0.30891
H         11.69199        5.14645       -2.73308
H          9.95854        5.25083       -3.03241
H          9.68615        2.84650       -2.34990
H         11.40585        2.74866       -1.98279
H         11.93795        3.26065       -4.40453
H         10.21296        3.27828       -4.76907
H         10.02354        0.88768       -3.99729
H         11.73546        0.88584       -3.58392
H         12.27973        1.35184       -6.03374
H         10.55798        1.17589       -6.41775
H         10.57644       -1.14277       -5.40858
H         12.32654       -0.98509       -5.11457
H         13.74291       -0.89168       -6.89564
H         12.95587        0.04183       -8.19125
H         11.54390       -3.20997       -8.10982
H         12.09195       -4.96299       -9.62644
H         15.53002       -3.08399      -10.99765
H         16.36864       -1.12153       -9.64488
H         15.24249       -0.19516       -8.64087
H         15.26145       -0.43352      -11.71305
H         15.58507        1.01904      -10.72390
H         13.47920        0.92853      -12.75813
H         13.63720        2.27378      -11.57528
H         11.21579        0.39472      -11.89700
H         11.30977        2.08332      -12.45514
H         11.43957        1.26218       -9.74688
H         14.96918       -5.83158      -11.05049
H         14.02867       -5.05082      -12.31916
H         11.25965       -7.89279      -10.77837
