66

C          0.68200       -1.14694       -2.19578
O          2.10444       -1.14206       -2.04458
C          2.72052       -0.08309       -2.73676
C          4.20824       -0.13473       -2.50627
C          5.07120        0.82804       -3.03729
C          6.43521        0.74426       -2.78418
C          6.96751       -0.28417       -2.00508
N          6.09929       -1.22167       -1.50170
C          4.76551       -1.15191       -1.74488
C          6.64422       -2.34897       -0.67892
C          5.64514       -3.42082       -0.26757
C          6.41084       -4.54510        0.45913
S          5.60847       -6.16481        0.34606
C          6.11715       -6.66629       -1.30212
S          7.02248       -5.72277       -2.33683
N          5.68427       -7.92120       -1.60175
C          4.83987       -8.68513       -0.70786
C          3.47377       -8.39121       -0.62002
C          2.65926       -9.15866        0.21377
C          3.20459      -10.21729        0.94539
C          4.56777      -10.51213        0.84512
C          5.39038       -9.74827        0.01692
C          6.07190       -8.58771       -2.82711
C          7.37709       -9.06537       -2.97778
C          7.71975       -9.76611       -4.13403
C          6.76410       -9.99002       -5.12973
C          5.46140       -9.51111       -4.96909
C          5.10959       -8.80975       -3.81442
C          8.42809       -0.40633       -1.69313
C          9.31645        0.69999       -2.25919
O         10.62481        0.38679       -1.82262
C         11.59780        1.32634       -2.24128
C         12.95124        0.87518       -1.69771
F         12.95660        0.81941       -0.34552
F         13.29857       -0.34653       -2.16265
F         13.90240        1.75989       -2.08583
H          0.30682       -1.98382       -1.59802
H          0.39430       -1.29070       -3.25099
H          0.24137       -0.20629       -1.82369
H          2.33749        0.89991       -2.39167
H          2.51807       -0.13870       -3.82668
H          4.68049        1.64539       -3.64622
H          7.10893        1.49139       -3.19718
H          4.14215       -1.92949       -1.31669
H          7.12781       -1.89475        0.19912
H          7.42342       -2.83449       -1.28645
H          5.17923       -3.84582       -1.16770
H          4.85517       -3.02647        0.38872
H          6.49126       -4.34980        1.53778
H          7.42108       -4.66587        0.04197
H          3.06172       -7.56695       -1.20254
H          1.59433       -8.93568        0.28514
H          2.56440      -10.81859        1.59127
H          4.99240      -11.34068        1.41245
H          6.45380       -9.96970       -0.07439
H          8.11405       -8.87966       -2.19653
H          8.73608      -10.14207       -4.25551
H          7.03553      -10.54180       -6.03016
H          4.71357       -9.68604       -5.74311
H          4.09455       -8.43670       -3.67645
H          8.81105       -1.37380       -2.06050
H          8.57729       -0.43083       -0.60039
H          9.00749        1.69468       -1.88025
H          9.27087        0.72515       -3.36617
H         11.39157        2.33671       -1.84495
H         11.67361        1.37934       -3.34219
