31

C          5.33580        1.83529       -0.46123
C          5.29417        1.21900        0.92131
O          5.52737       -0.24051        0.85024
C          4.45654       -1.01840        0.76057
O          3.28812       -0.68189        0.71105
C          4.84274       -2.52700        0.82158
O          6.05241       -2.90284        0.22673
C          6.00805       -2.93356       -1.21895
N          7.22727       -3.35216       -1.77878
N          4.96203       -3.90537       -1.59061
C          3.83208       -3.99495       -0.87917
N          2.80661       -4.76038       -1.29925
C          2.76821       -5.43509       -2.60788
C          3.79345       -6.46295       -2.77253
C          4.66626       -7.28751       -2.91616
N          3.71471       -3.29446        0.26301
H          5.23544        2.92525       -0.36868
H          4.50896        1.47533       -1.08664
H          6.29072        1.62775       -0.96132
H          4.33196        1.38256        1.42136
H          6.11278        1.57320        1.55792
H          4.94761       -2.78567        1.88841
H          5.73565       -1.93439       -1.59900
H          7.64150       -4.13392       -1.26966
H          7.90202       -2.59527       -1.85727
H          5.20624       -4.63272       -2.26461
H          2.10687       -5.01783       -0.61078
H          2.85864       -4.67641       -3.40260
H          1.76563       -5.87451       -2.70702
H          5.41648       -8.04121       -3.05075
H          2.79716       -2.93160        0.52098
