64

C          5.15430       10.93469        8.26462
C          4.84384        9.45912        8.00406
C          6.04561        8.68711        7.45055
C          5.74571        7.21505        7.14786
C          6.95390        6.47976        6.55482
C          6.64205        5.03746        6.19647
O          7.81157        4.45805        5.56792
C          7.62084        3.11475        5.18007
N          8.75585        2.70746        4.35998
C         10.02002        2.76831        4.80739
N         11.03146        2.25424        4.04466
N         12.32898        2.38579        4.59786
C         12.99493        1.08413        4.72972
C         13.15018        3.39522        3.91302
C         10.87196        1.96526        2.60522
C         10.05122        0.71770        2.26460
O          8.93373        0.51000        2.72415
O         10.68093       -0.04622        1.38255
C          9.94670       -1.21489        0.84170
C          8.99067       -0.81656       -0.27060
C          9.65043       -0.12872       -1.47102
C          8.64509        0.24360       -2.56495
C          9.27489        0.98917       -3.74593
C          8.25784        1.36662       -4.82472
N         10.30977        3.31516        5.99155
H          4.27700       11.46749        8.65518
H          5.46895       11.44328        7.34107
H          5.96648       11.04776        8.99786
H          4.00381        9.37827        7.29394
H          4.50118        8.98098        8.93696
H          6.88224        8.75044        8.16834
H          6.39869        9.18052        6.52801
H          4.89819        7.15518        6.44356
H          5.41546        6.70859        8.07080
H          7.79253        6.50330        7.27020
H          7.29510        7.00030        5.64573
H          5.79738        4.98047        5.48568
H          6.37399        4.44896        7.09352
H          6.71688        2.99345        4.55941
H          7.52898        2.46090        6.07236
H          8.57893        1.96974        3.65121
H         12.36066        0.40660        5.31296
H         13.93637        1.23895        5.27095
H         13.23115        0.61769        3.75504
H         12.59968        4.34227        3.85311
H         13.46965        3.09487        2.89800
H         14.05375        3.55459        4.51443
H         11.87525        1.86247        2.18051
H         10.38112        2.81778        2.10446
H          9.42652       -1.69845        1.67817
H         10.75570       -1.86055        0.47902
H          8.18992       -0.18402        0.14375
H          8.49862       -1.74825       -0.59755
H         10.42890       -0.78836       -1.89140
H         10.17291        0.78346       -1.13643
H          7.84528        0.86758       -2.12801
H          8.14781       -0.67056       -2.93243
H         10.07035        0.36589       -4.18736
H          9.77416        1.90000       -3.37341
H          7.77373        0.47337       -5.24556
H          8.73411        1.90779       -5.65320
H          7.46537        2.01197       -4.41719
H          9.59947        3.90711        6.42157
H         11.29847        3.40448        6.21162
