72

C          5.96081        5.34305        7.61364
C          6.64109        4.46494        6.56035
C          7.06299        5.24131        5.30842
C          7.75723        4.37948        4.24939
C          8.18596        5.17122        3.01049
C          8.90153        4.32740        1.95083
C          9.35859        5.14590        0.73977
C         10.08336        4.31830       -0.32721
C         10.58577        5.17558       -1.49555
C         11.29859        4.36123       -2.55934
O         11.78031        5.26736       -3.57449
C         12.44587        4.62667       -4.64084
C         12.88891        5.71699       -5.56879
N         12.52017        7.02731       -5.30346
C         13.00103        7.83183       -6.25653
N         13.66563        7.06366       -7.13383
C         13.62278        5.72694       -6.72963
C         14.21651        4.61544       -7.52255
C         13.25965        4.05319       -8.59726
C         13.86362        2.85873       -9.33972
C         12.90434        2.21882      -10.34829
C         13.49972        0.98774      -11.03936
C         12.53924        0.30482      -12.01762
C         13.13103       -0.94690      -12.67605
C         12.16631       -1.63696      -13.64339
N         12.97090        9.23086       -6.24931
O         13.03613        9.63185       -7.61769
O         11.72339        9.59941       -5.67183
H          5.67219        4.76044        8.49924
H          5.04964        5.81313        7.21445
H          6.62740        6.15089        7.95100
H          5.96317        3.64507        6.26828
H          7.52815        3.97941        7.00150
H          7.73542        6.06665        5.60321
H          6.17470        5.72315        4.86251
H          7.08493        3.55784        3.94602
H          8.64289        3.89468        4.69675
H          8.84772        5.99901        3.32126
H          7.29928        5.64921        2.55796
H          8.23497        3.51360        1.61591
H          9.77689        3.83294        2.40746
H         10.02423        5.95767        1.08215
H          8.48527        5.64363        0.28304
H          9.40703        3.53247       -0.70503
H         10.93591        3.79198        0.13551
H         11.27874        5.94532       -1.11780
H          9.73990        5.70776       -1.96084
H         10.61746        3.62512       -3.02517
H         12.15766        3.81041       -2.13342
H         11.77677        3.91961       -5.17130
H         13.32402        4.04782       -4.29028
H         11.95317        7.29485       -4.49972
H         14.09355        7.42881       -7.98063
H         14.49864        3.81124       -6.82586
H         15.15598        4.95360       -7.98844
H         12.99623        4.85150       -9.31128
H         12.31608        3.75393       -8.11162
H         14.17446        2.09753       -8.60279
H         14.78699        3.17476       -9.85533
H         12.61201        2.96524      -11.10709
H         11.97242        1.93106       -9.83067
H         13.81317        0.25943      -10.27073
H         14.42173        1.27804      -11.57282
H         12.23859        1.02309      -12.80062
H         11.61033        0.03164      -11.48615
H         13.43670       -1.65766      -11.88951
H         14.05668       -0.67209      -13.20974
H         11.24764       -1.95835      -13.13017
H         12.62132       -2.52792      -14.09685
H         11.86947       -0.96343      -14.46101
H         13.57340       10.44614       -7.58621
H         11.93941       10.40394       -5.16278
