147

C          0.04220       -1.09301        0.47866
C          1.53427       -1.17709        0.81006
C          2.33991       -1.98408       -0.21373
C          3.83430       -2.07956        0.10979
C          4.63297       -2.89448       -0.91248
C          6.11446       -3.05157       -0.55548
C          6.91906       -3.83096       -1.60068
C          8.38641       -4.04396       -1.21482
C          9.19275       -4.80842       -2.26965
C         10.64806       -5.06574       -1.86537
C         11.45621       -5.80032       -2.93959
C         12.89807       -6.11108       -2.52413
C         13.70207       -6.80502       -3.62801
C         15.11927       -7.20546       -3.19859
C         15.89518       -7.85150       -4.35293
C         17.34132       -8.28322       -4.04490
C         17.42188       -9.35114       -2.93844
C         18.79981      -10.00567       -2.76821
C         18.82623      -11.20253       -1.81442
S         20.50233      -11.88167       -1.73064
C         21.25116      -10.79670       -0.48356
S         20.35003      -10.11559        0.73866
N         22.59176      -10.68113       -0.62845
C         23.28802      -10.91659       -1.90821
C         23.07818       -9.72733       -2.85606
C         23.78632       -9.84041       -4.20901
C         23.31421       -8.74767       -5.17577
C         24.03709       -8.70037       -6.52403
C         23.46234       -7.63884       -7.46934
C         24.21549       -7.50356       -8.79668
C         23.59182       -6.47310       -9.74110
C         23.41240      -10.11442        0.45652
C         23.99078      -11.21102        1.35782
C         24.81402      -10.64155        2.51681
C         25.44452      -11.72645        3.39735
C         26.17335      -11.16716        4.62340
C         26.85758      -12.24124        5.47528
C         27.53839      -11.68562        6.73147
C         28.24840      -12.75726        7.56246
N         17.85745       -8.95161       -5.37943
C         19.15107       -8.29065       -5.78410
C         19.02668       -6.87516       -5.22659
C         18.32052       -7.09621       -3.87289
C         20.38049       -6.16374       -5.16677
C         20.26387       -4.65548       -4.92702
C         21.60624       -3.95062       -5.17423
S         21.44408       -2.21980       -5.68109
C         21.01692       -2.39293       -7.41718
S         20.91819       -3.87772       -8.18533
N         20.80435       -1.20638       -8.03320
C         20.82459        0.10676       -7.37837
C         19.43851        0.75084       -7.49358
O         19.02003        0.84880       -8.85006
C         18.99330       -0.43433       -9.47504
C         20.36206       -1.11363       -9.43012
H         -0.50808       -0.51539        1.23426
H         -0.41298       -2.09360        0.42922
H         -0.12409       -0.60876       -0.49533
H          1.66464       -1.62790        1.80854
H          1.95442       -0.15971        0.88296
H          2.21002       -1.53495       -1.21457
H          1.91782       -3.00232       -0.28594
H          3.96169       -2.52663        1.11185
H          4.25998       -1.06272        0.17866
H          4.54305       -2.42148       -1.90662
H          4.17775       -3.89577       -1.01455
H          6.20006       -3.55759        0.42236
H          6.56675       -2.05362       -0.41735
H          6.86810       -3.30177       -2.56860
H          6.44241       -4.81271       -1.76979
H          8.43464       -4.58651       -0.25412
H          8.86278       -3.06485       -1.03078
H          9.17107       -4.24843       -3.22119
H          8.69816       -5.77360       -2.47781
H         10.66770       -5.65031       -0.92874
H         11.13972       -4.10508       -1.63160
H         11.46425       -5.19690       -3.86443
H         10.94423       -6.74320       -3.20038
H         12.88857       -6.74722       -1.62191
H         13.40830       -5.17698       -2.23139
H         13.75978       -6.14162       -4.50873
H         13.15903       -7.70609       -3.96292
H         15.05615       -7.90191       -2.34797
H         15.65834       -6.31618       -2.83272
H         15.91551       -7.14217       -5.20077
H         15.33264       -8.73949       -4.69582
H         16.65200      -10.11908       -3.13305
H         17.13081       -8.86967       -1.99332
H         19.52319       -9.26447       -2.39741
H         19.20585      -10.36201       -3.73279
H         18.18471      -12.02699       -2.15776
H         18.54102      -10.92231       -0.78704
H         22.93822      -11.84924       -2.36952
H         24.35229      -11.06018       -1.67681
H         23.39487       -8.80284       -2.34572
H         21.99233       -9.63040       -3.02354
H         23.59327      -10.83171       -4.65384
H         24.87831       -9.77418       -4.07174
H         23.40662       -7.76260       -4.68442
H         22.23185       -8.88903       -5.35527
H         23.98597       -9.69040       -7.00908
H         25.10903       -8.50137       -6.35564
H         23.45218       -6.65835       -6.96032
H         22.40194       -7.87635       -7.68002
H         24.25871       -8.48749       -9.29372
H         25.26207       -7.22626       -8.58670
H         22.55855       -6.74622      -10.00563
H         24.16055       -6.39128      -10.67718
H         23.55470       -5.47442       -9.28195
H         22.77907       -9.43053        1.03569
H         24.21707       -9.52508       -0.00924
H         24.61342      -11.89406        0.75506
H         23.15610      -11.81249        1.75205
H         24.16734       -9.99617        3.13594
H         25.60998       -9.98579        2.12180
H         26.14827      -12.32338        2.79104
H         24.65996      -12.42867        3.72916
H         25.45399      -10.60880        5.24761
H         26.92596      -10.42779        4.29703
H         27.60470      -12.77390        4.86032
H         26.11442      -13.00273        5.77142
H         26.78433      -11.17477        7.35420
H         28.26291      -10.90698        6.43750
H         27.54644      -13.53658        7.89418
H         28.71592      -12.32807        8.45930
H         29.03957      -13.25410        6.98107
H         17.14051       -8.81292       -6.10180
H         17.97145       -9.96364       -5.24574
H         19.27069       -8.34791       -6.87270
H         19.96838       -8.84397       -5.30203
H         18.36514       -6.29620       -5.89575
H         17.77908       -6.20224       -3.54305
H         19.06932       -7.32308       -3.10136
H         20.89090       -6.30376       -6.13266
H         21.01427       -6.64379       -4.40210
H         19.89864       -4.43141       -3.91274
H         19.52471       -4.25420       -5.63567
H         22.17022       -4.45633       -5.97161
H         22.23144       -3.91042       -4.27025
H         21.57611        0.73473       -7.88406
H         21.11330        0.01119       -6.32548
H         19.46093        1.77538       -7.09929
H         18.70961        0.15776       -6.90620
H         18.68302       -0.26657      -10.51457
H         18.24417       -1.08329       -8.98023
H         21.10072       -0.51813       -9.99050
H         20.32265       -2.12648       -9.84709
