70

C          1.26229       -0.19895       -0.61350
C          2.77681       -0.13987       -0.39890
C          3.18508        0.73998        0.78794
C          4.70023        0.82112        0.99997
C          5.09622        1.65412        2.22395
C          6.61463        1.76867        2.41152
C          6.98191        2.55514        3.65673
O          8.41738        2.69196        3.71432
C          8.88445        3.36672        4.86764
C         10.38139        3.61300        4.65939
C         10.59953        4.75020        3.62663
N         11.94854        4.92325        3.12889
C         12.54420        3.67709        2.68249
C         12.50038        2.54666        3.72802
N         11.03445        2.34237        4.12012
C         10.79421        1.08466        4.96421
C         11.29828       -0.13918        4.25348
C         10.59171       -0.63477        3.14481
C         11.07218       -1.74110        2.44364
C         12.25363       -2.36800        2.85281
C         12.95209       -1.88958        3.96423
C         12.47836       -0.77625        4.66036
C         13.39926        2.80239        4.93534
C         14.85174        2.38213        4.61688
O         15.09047        1.79702        3.56763
C         15.91469        2.70573        5.60325
C         17.24655        2.40587        5.25699
C         18.28237        2.69032        6.14090
C         18.00361        3.27102        7.38422
C         16.68492        3.56908        7.74084
C         15.64501        3.29203        6.85454
H          1.00213       -0.84775       -1.46059
H          0.84842        0.79898       -0.82064
H          0.74712       -0.59198        0.27560
H          3.26532        0.23457       -1.31441
H          3.16795       -1.15977       -0.24369
H          2.70737        0.35528        1.70628
H          2.78233        1.75790        0.64322
H          5.17421        1.24628        0.09810
H          5.11016       -0.19862        1.10627
H          4.64394        1.20953        3.12723
H          4.66347        2.66526        2.13311
H          7.06436        2.26109        1.53390
H          7.06040        0.76175        2.47638
H          6.62899        2.04181        4.57074
H          6.52905        3.56357        3.63908
H          8.67919        2.78636        5.78723
H          8.38863        4.34845        4.99196
H         10.87017        3.84122        5.61697
H         10.25436        5.68734        4.08373
H          9.93214        4.54821        2.77017
H         12.54538        5.44210        3.77039
H         13.58886        3.83875        2.38901
H         12.01375        3.34091        1.77331
H         12.81010        1.60695        3.25294
H         10.52037        2.15341        3.24213
H          9.71069        1.03521        5.11189
H         11.27745        1.23706        5.93571
H          9.65563       -0.16046        2.83632
H         10.51953       -2.12174        1.58457
H         12.62657       -3.23608        2.30897
H         13.86981       -2.38055        4.28810
H         13.02970       -0.40467        5.52630
H         13.08093        2.23669        5.82433
H         13.38545        3.86116        5.23586
H         17.44248        1.95248        4.28504
H         19.31190        2.46138        5.86465
H         18.81643        3.49089        8.07717
H         16.46910        4.01826        8.71049
H         14.62317        3.53215        7.15127
