57

C          0.73310       -0.44790        0.04027
C          2.23961       -0.38777       -0.22189
C          2.69658        0.95377       -0.80382
C          4.20192        1.02405       -1.07877
C          4.64893        2.35681       -1.68800
C          6.15253        2.42461       -1.97395
C          6.58418        3.73876       -2.63480
C          8.08943        3.79188       -2.92918
C          8.48511        5.07637       -3.63295
O          9.92208        5.05178       -3.87273
C         10.38755        6.15782       -4.56873
N         11.87026        5.90611       -4.75442
C         12.17632        4.67678       -5.62545
C         12.19012        4.92276       -7.09779
C         13.27847        4.97054       -7.88068
Br        15.05272        4.85790       -7.24787
Br        10.49639        5.02854       -7.97719
C         12.63293        7.16180       -5.15444
C         12.92455        8.05182       -3.95464
C         13.70566        9.30961       -4.36080
C         13.85034       10.29377       -3.19148
N         12.53017       10.73818       -2.72598
H          0.43482       -1.42012        0.45536
H          0.16169       -0.29255       -0.88694
H          0.42165        0.32881        0.75430
H          2.52691       -1.19823       -0.91285
H          2.78627       -0.58139        0.71638
H          2.41255        1.76627       -0.11205
H          2.14574        1.14834       -1.74105
H          4.48641        0.20101       -1.75773
H          4.75401        0.84672       -0.13923
H          4.36782        3.18201       -1.01070
H          4.09275        2.53085       -2.62582
H          6.43782        1.58084       -2.62609
H          6.71265        2.28594       -1.03314
H          6.30480        4.58493       -1.98409
H          6.01983        3.87308       -3.57368
H          8.37578        2.93588       -3.56121
H          8.65996        3.70442       -1.99098
H          8.24540        5.96197       -3.01772
H          7.96714        5.17564       -4.60357
H         10.29443        7.10053       -4.00019
H          9.94096        6.27219       -5.57155
H         12.19561        5.64323       -3.81116
H         11.43072        3.92329       -5.34215
H         13.17373        4.33847       -5.31405
H         13.22148        5.06951       -8.96279
H         12.02685        7.66970       -5.91722
H         13.55991        6.81890       -5.63253
H         13.51360        7.48398       -3.21219
H         11.99995        8.38250       -3.45663
H         13.18063        9.81618       -5.18877
H         14.70408        9.03998       -4.73886
H         14.51565       11.11766       -3.50585
H         14.35284        9.78800       -2.35245
H         12.17075       11.48386       -3.32376
H         12.59192       11.13089       -1.78724
