39

C          3.95578       -1.65557        1.82208
C          3.32179       -0.50003        1.07750
O          4.08965        0.69657        1.33774
C          3.56861        1.85005        0.70792
C          4.37465        3.03203        1.22759
N          5.86849        2.74329        1.16502
C          6.36139        2.79500       -0.27186
C          7.75198        2.20793       -0.53581
C          7.90205        0.70347       -0.44589
Br         7.88024        0.09551        1.44132
Br         8.13279        2.67454       -2.42158
C          6.66639        3.65575        2.07865
C          6.57190        3.26777        3.56599
C          7.54981        4.12336        4.42694
N          6.86947        5.36146        4.81926
O          5.26498        3.41747        4.08082
H          3.37450       -2.57032        1.64704
H          3.97230       -1.46266        2.90244
H          4.98388       -1.83375        1.48040
H          2.28295       -0.33132        1.41239
H          3.30117       -0.68539       -0.01217
H          2.50982        2.02539        0.97666
H          3.60734        1.75403       -0.39575
H          4.16193        3.20988        2.28850
H          4.18630        3.94642        0.64940
H          5.97948        1.76342        1.50380
H          6.34391        3.85350       -0.55996
H          5.62256        2.26044       -0.88136
H          8.54127        2.71423        0.03091
H          8.87182        0.37717       -0.82904
H          7.09356        0.16493       -0.95155
H          6.30435        4.67786        1.89707
H          7.71388        3.58540        1.76041
H          6.86283        2.20725        3.65634
H          8.50604        4.28389        3.90240
H          7.76887        3.54648        5.33392
H          7.10758        6.15599        4.22838
H          7.07505        5.62273        5.78071
H          5.30543        4.30592        4.52584
