107

C          0.45921        0.30368       -0.19815
C          1.97222        0.09254       -0.09580
C          2.61173       -0.36167       -1.41238
C          4.12693       -0.57072       -1.32601
C          4.75485       -1.04762       -2.63936
C          6.27198       -1.24740       -2.56485
C          6.88603       -1.74872       -3.87576
C          8.40722       -1.92201       -3.82264
C          9.00765       -2.43855       -5.13409
C         10.53319       -2.57737       -5.10596
C         11.12235       -3.08607       -6.42545
C         12.65115       -3.18772       -6.42289
C         13.23065       -3.67753       -7.75395
C         14.76148       -3.73179       -7.77553
C         15.33532       -4.21128       -9.11333
C         16.86747       -4.21841       -9.14734
C         17.43660       -4.69761      -10.48535
C         18.98092       -4.62371      -10.52148
C         19.54686       -5.15999      -11.78978
N         19.52509       -4.51209      -12.94616
N         20.08125       -5.35695      -13.84225
C         20.44717       -6.49840      -13.27020
N         20.12481       -6.40836      -11.96068
C         20.33110       -7.47190      -10.95306
C         19.03271       -8.18566      -10.55466
C         18.22050       -8.76634      -11.72030
C         18.91812       -9.88216      -12.50835
C         18.03922      -10.48048      -13.61224
C         18.73315      -11.58710      -14.41294
C         17.83838      -12.22271      -15.48207
C         18.54158      -13.31164      -16.29949
C         17.62760      -13.98895      -17.32559
C         18.33040      -15.07092      -18.15323
C         17.39735      -15.76215      -19.15178
C         18.11220      -16.83247      -19.98614
N         17.22763      -17.49590      -20.94062
C         16.93906      -17.04613      -22.20776
C         15.97701      -17.88575      -22.76590
C         15.67238      -18.86972      -21.80111
C         16.45547      -18.60320      -20.67936
I         20.30722       -4.81390      -15.91186
H          0.02916        0.62120        0.76190
H         -0.05326       -0.62178       -0.50129
H          0.21310        1.07481       -0.94355
H          2.18848       -0.65365        0.68777
H          2.45384        1.02720        0.23854
H          2.39048        0.38126       -2.19937
H          2.13233       -1.30013       -1.74360
H          4.34978       -1.30221       -0.52907
H          4.60846        0.37205       -1.01141
H          4.52304       -0.32186       -3.43895
H          4.27758       -1.99488       -2.94709
H          6.50791       -1.96019       -1.75492
H          6.75180       -0.29538       -2.27661
H          6.62957       -1.04725       -4.68943
H          6.41887       -2.71084       -4.15129
H          8.66949       -2.61354       -3.00244
H          8.87508       -0.95593       -3.56262
H          8.72126       -1.75919       -5.95672
H          8.55610       -3.41580       -5.38153
H         10.82543       -3.25799       -4.28680
H         10.98293       -1.59926       -4.85948
H         10.80624       -2.41669       -7.24511
H         10.69005       -4.07454       -6.66177
H         12.97374       -3.86320       -5.61112
H         13.08056       -2.19959       -6.18076
H         12.88056       -3.01710       -8.56664
H         12.82469       -4.67846       -7.98358
H         15.11814       -4.39228       -6.96576
H         15.16370       -2.72943       -7.54634
H         14.95798       -3.56516       -9.92486
H         14.95695       -5.22530       -9.33304
H         17.25155       -4.85850       -8.33339
H         17.24182       -3.20196       -8.93572
H         17.04057       -4.08466      -11.30994
H         17.10887       -5.73135      -10.68507
H         19.41098       -5.16392       -9.66490
H         19.30042       -3.57561      -10.42963
H         20.92116       -7.34228      -13.75856
H         20.81297       -7.00863      -10.08198
H         21.05540       -8.17024      -11.39059
H         18.40465       -7.49801       -9.96979
H         19.32617       -8.98942       -9.86076
H         17.91651       -7.95597      -12.40630
H         17.27838       -9.15827      -11.30673
H         19.22617      -10.68046      -11.81110
H         19.85497       -9.51401      -12.96532
H         17.71441       -9.67834      -14.29832
H         17.11569      -10.87957      -13.15895
H         19.08474      -12.37167      -13.72042
H         19.64163      -11.17882      -14.89101
H         17.46528      -11.43777      -16.16314
H         16.94371      -12.65066      -14.99741
H         18.94828      -14.07605      -15.61433
H         19.41434      -12.87529      -16.81628
H         17.20919      -13.22592      -18.00485
H         16.76288      -14.43433      -16.80402
H         18.76611      -15.82437      -17.47390
H         19.18247      -14.62211      -18.69319
H         16.95472      -15.01694      -19.83286
H         16.55490      -16.23113      -18.61787
H         18.54435      -17.60682      -19.33522
H         18.94548      -16.38988      -20.55198
H         17.44103      -16.17461      -22.61625
H         15.56279      -17.79526      -23.76478
H         14.97434      -19.69400      -21.90240
H         16.52714      -19.11938      -19.72698
