72

C         -0.31146       -0.13287        0.40372
C          1.21501       -0.24178        0.42231
C          1.85802        0.41833        1.64709
C          3.38628        0.31580        1.66654
C          4.03619        0.97465        2.88764
C          5.56480        0.87897        2.88590
C          6.23279        1.53994        4.09604
C          7.76073        1.44657        4.05889
C          8.46481        2.11247        5.24558
C          9.99016        1.99437        5.15215
C         10.73378        2.66080        6.31632
C         12.24655        2.37778        6.44531
N         12.50447        0.93700        6.64269
C         12.86295        0.09689        5.65845
N         12.94148       -1.22919        5.91081
C         13.01649       -2.28071        4.89551
C         11.64960       -2.58973        4.26973
O         11.88031       -3.47885        3.20800
C         10.66779       -4.01755        2.64775
C         11.03344       -4.95498        1.51573
N         13.18090        0.57215        4.44912
C         13.12687        1.99075        4.05369
C         13.16138        2.87113        5.31484
C         14.26726        2.31038        3.10677
C         15.58369        1.91076        3.36859
C         16.58642        2.27351        2.46634
N         16.36215        2.99313        1.35738
C         15.10061        3.37426        1.11598
C         14.02452        3.05662        1.95085
H         -0.73931       -0.61961       -0.48347
H         -0.63640        0.91821        0.39396
H         -0.75773       -0.60720        1.29059
H          1.62844        0.21439       -0.49334
H          1.50956       -1.30466        0.38803
H          1.44818       -0.03969        2.56484
H          1.56293        1.48191        1.68450
H          3.79309        0.77348        0.74738
H          3.68000       -0.74825        1.62764
H          3.64012        0.51199        3.80855
H          3.73786        2.03673        2.93189
H          5.95533        1.33922        1.96094
H          5.86304       -0.18401        2.84099
H          5.85759        1.07540        5.02449
H          5.93295        2.60102        4.14616
H          8.12689        1.90106        3.12101
H          8.05787        0.38275        4.01271
H          8.11772        1.65722        6.18933
H          8.17919        3.17676        5.29807
H         10.30910        2.43562        4.19420
H         10.24973        0.92185        5.10158
H         10.26298        2.35043        7.26532
H         10.60806        3.75475        6.27270
H         12.59188        2.87032        7.36689
H         12.17035        0.52278        7.50669
H         12.68951       -1.52392        6.84835
H         13.42574       -3.17665        5.37861
H         13.74212       -2.01301        4.11247
H         11.16441       -1.65204        3.92127
H         10.98244       -3.03364        5.03712
H         10.02995       -3.18671        2.28978
H         10.11116       -4.54946        3.44253
H         11.56166       -4.42009        0.71536
H         10.12314       -5.39635        1.08869
H         11.67500       -5.77067        1.87382
H         13.48114       -0.09203        3.74287
H         12.18223        2.15418        3.51413
H         12.88317        3.89478        5.03465
H         14.19518        2.90836        5.68801
H         15.83732        1.32888        4.25738
H         17.62242        1.97260        2.64388
H         14.93884        3.95769        0.20592
H         13.01524        3.38623        1.69571
