59

C         15.93603        5.26788        3.33805
C         15.69833        3.75804        3.42639
C         14.24713        3.35908        3.13660
C         13.98912        1.85070        3.21606
C         12.53032        1.47267        2.94156
C         12.25330       -0.03147        3.02961
C         10.77790       -0.37662        2.79998
C         10.43332       -1.84810        2.99336
O         10.74119       -2.34624        4.32228
C          9.88622       -1.88324        5.35728
C         10.52557       -2.35398        6.66793
N         10.74234       -3.84175        6.46349
C         11.50884       -4.65381        7.59829
C         12.77093       -3.83731        7.87950
N         12.44194       -2.45066        8.16963
C         11.89276       -1.71892        7.03236
C         11.73775       -0.22733        7.41474
C         13.03750        0.51583        7.83663
F         13.48380        0.07010        9.05169
F         14.00706        0.26369        6.90805
F         11.27913        0.48382        6.32675
F         10.81932       -0.07382        8.41666
N         10.59587       -4.94351        8.63720
C         10.09484       -6.32160        8.67635
C         10.74574       -4.33577        9.96335
H         16.98173        5.52460        3.55467
H         15.30451        5.81506        4.05395
H         15.70227        5.65060        2.33373
H         15.98118        3.39714        4.43028
H         16.36642        3.23695        2.72007
H         13.96348        3.72410        2.13389
H         13.57888        3.88151        3.84432
H         14.28016        1.48051        4.21554
H         14.64535        1.32866        2.49803
H         12.23762        1.84099        1.94320
H         11.87767        2.00084        3.65917
H         12.56929       -0.39796        4.02013
H         12.87491       -0.57081        2.29441
H         10.48389       -0.11465        1.76991
H         10.14078        0.25121        3.44634
H         11.03545       -2.48335        2.32902
H          9.36747       -2.04091        2.77888
H          8.87240       -2.32453        5.26020
H          9.77226       -0.79201        5.35784
H          9.83366       -2.24129        7.51303
H         11.19421       -3.92401        5.53208
H          9.81711       -4.28436        6.38985
H         11.79164       -5.57324        7.06239
H         13.45211       -3.95321        7.00975
H         13.28354       -4.27320        8.74729
H         13.23408       -1.96803        8.58868
H         12.54391       -1.73916        6.13312
H         12.85367        1.59994        7.89526
H          9.90380       -6.69419        7.66093
H          9.14346       -6.34837        9.22277
H         10.79744       -7.01443        9.17570
H         11.00212       -3.27606        9.87112
H         11.51635       -4.84105       10.57501
H          9.78871       -4.42248       10.49328
