45

C          9.55687       -0.50627        3.04813
C          8.33655       -0.16763        2.19024
C          8.68250        0.70964        0.98200
C          7.46080        1.06403        0.12730
C          7.81291        1.96357       -1.06385
C          6.56300        2.32938       -1.87030
N          6.87196        3.28064       -2.97596
N          6.85355        4.54479       -2.54744
C          7.12671        5.52489       -3.44420
C          7.43213        5.21680       -4.80233
C          7.44857        3.90069       -5.17033
C          7.17107        2.87583       -4.22604
C          7.15136        1.40421       -4.56860
C          7.92799        0.97720       -5.83687
C          9.40899        1.05701       -5.70997
C         10.27009        0.03139       -5.72026
F          9.89187       -1.23542       -5.84373
F         11.57882        0.15513       -5.61388
F          9.93146        2.31237       -5.57342
N          7.05520        6.78934       -2.97245
N          7.42507        7.91754       -3.68079
N          6.99102        7.00787       -1.57003
H          9.27888       -1.13356        3.90526
H         10.03230        0.40370        3.44227
H         10.31415       -1.05307        2.46761
H          7.58164        0.34804        2.80694
H          7.85971       -1.09788        1.83895
H          9.43167        0.19316        0.35726
H          9.16424        1.63879        1.33223
H          6.70975        1.57107        0.75676
H          6.98402        0.13671       -0.23414
H          8.54946        1.46080       -1.71200
H          8.28306        2.89380       -0.70891
H          5.83656        2.85477       -1.24006
H          6.07474        1.44762       -2.30012
H          7.64680        6.00513       -5.52191
H          7.69112        3.62502       -6.19313
H          6.09747        1.10057       -4.69869
H          7.53895        0.82163       -3.72228
H          7.59258        1.54983       -6.71728
H          7.66356       -0.06766       -6.04543
H          6.80624        8.09256       -4.47006
H          8.41186        7.92034       -3.94609
H          6.47126        6.22508       -1.16083
H          6.45866        7.87355       -1.44710
