41

O          1.33663        0.23875       -4.44645
C          2.71735        0.27601       -4.10216
C          2.85866        1.34979       -3.03188
O          4.25718        1.49467       -2.74771
C          4.53633        2.43931       -1.74150
C          6.04835        2.47375       -1.57080
S          6.81788        3.10231       -3.12231
C          6.75799        4.86768       -2.92582
C          7.41159        5.51123       -1.86494
C          7.33263        6.89363       -1.74390
C          6.59820        7.62415       -2.68761
C          5.94666        6.99560       -3.74670
C          6.01330        5.59781       -3.88812
O          5.41585        4.89213       -4.86995
C          4.67407        5.60367       -5.88142
C          8.57280        2.69436       -2.96213
C          8.98695        1.49560       -2.37960
C         10.35667        1.20170       -2.42149
N         11.27134        1.98695       -3.00060
C         10.84266        3.11974       -3.57231
C          9.50440        3.52784       -3.58525
H          1.18101       -0.51966       -5.02870
H          3.35060        0.54169       -4.96872
H          3.06992       -0.69118       -3.70322
H          2.30848        1.05742       -2.12017
H          2.43885        2.30375       -3.39993
H          4.10080        2.14535       -0.76549
H          4.13188        3.44046       -1.99087
H          6.42412        1.45052       -1.44735
H          6.37741        3.10840       -0.74005
H          7.99526        4.92988       -1.14928
H          7.84127        7.39931       -0.92433
H          6.53168        8.70876       -2.59598
H          5.38356        7.58809       -4.46523
H          4.30557        4.83145       -6.56276
H          5.32657        6.30021       -6.42654
H          3.82559        6.14276       -5.43665
H          8.30415        0.79133       -1.90741
H         10.72418        0.28082       -1.96097
H         11.60341        3.74323       -4.04919
H          9.21676        4.46378       -4.06281
