64

C          1.23991        0.24742       -0.76842
C          2.68377       -0.13566       -0.43531
C          3.25716        0.64808        0.75067
C          4.69529        0.25526        1.10643
C          5.26311        1.07005        2.27477
C          6.66209        0.63162        2.66967
O          7.12958        1.49788        3.72342
C          8.36841        1.10736        4.25885
C          8.68622        2.14017        5.34917
C          8.68325        3.57101        4.76386
N          9.07991        4.62343        5.67669
C         10.31806        4.33426        6.37135
C         10.36058        2.96047        7.06364
N         10.05049        1.89711        5.99301
C         10.29452        0.46630        6.45486
C         11.68775        0.24951        7.02273
C          9.45918        2.85487        8.29622
C         10.32312        3.03171        9.56510
O         11.45669        2.55080        9.60833
N          9.73367        3.69789       10.58301
C         10.33945        3.86386       11.90656
C          9.38057        3.45791       13.02725
C          9.99685        3.63247       14.42051
C          9.02473        3.27734       15.54800
H          0.86163       -0.32188       -1.62807
H          1.15599        1.31604       -1.01568
H          0.56818        0.05130        0.08038
H          3.32301        0.02651       -1.31943
H          2.73798       -1.21549       -0.21678
H          2.61090        0.49927        1.63349
H          3.21832        1.72850        0.52663
H          5.34004        0.38320        0.21992
H          4.72669       -0.82013        1.35371
H          4.60368        0.97970        3.15302
H          5.28954        2.13896        2.00778
H          7.35998        0.69448        1.81310
H          6.66274       -0.41456        3.03088
H          9.16899        1.11157        3.48406
H          8.30486        0.08097        4.66686
H          7.94898        2.05143        6.16034
H          7.68044        3.76852        4.37035
H          9.36830        3.58268        3.89289
H          8.32597        4.91696        6.29451
H         10.51946        5.10830        7.12419
H         11.14866        4.38990        5.64310
H         11.38597        2.74208        7.39151
H         10.74848        2.07115        5.25132
H         10.13521       -0.16201        5.57176
H          9.50744        0.22496        7.18052
H         12.46921        0.55162        6.30975
H         11.81556       -0.82622        7.19998
H         11.84820        0.77019        7.97499
H          8.99950        1.85913        8.39070
H          8.62945        3.57542        8.25185
H          8.79433        4.05850       10.44663
H         10.65517        4.91292       12.03072
H         11.24805        3.24714       11.91159
H          9.07695        2.40812       12.88048
H          8.45824        4.06280       12.96022
H         10.33775        4.67433       14.54060
H         10.90072        3.00598       14.49766
H          8.13709        3.92661       15.53004
H          9.49857        3.39248       16.53137
H          8.67768        2.23706       15.46667
