93

C          0.56086       -0.07888        0.37577
C          2.08825       -0.13273        0.28649
C          2.66479        0.75853       -0.81921
C          4.19295        0.70931       -0.91820
C          4.76410        1.59557       -2.02948
C          6.29174        1.54777       -2.13833
C          6.84885        2.43167       -3.25871
C          8.37602        2.40030       -3.37839
C          8.91179        3.27765       -4.51460
C         10.44005        3.30026       -4.61716
C         10.96024        4.15536       -5.77780
C         12.48715        4.26861       -5.81926
C         13.01326        5.09583       -6.99814
C         14.53241        5.29080       -6.95847
C         15.08551        6.05683       -8.16407
C         16.60558        6.31261       -8.04013
C         17.17926        6.99511       -9.24737
C         16.97727        8.39332       -9.44113
C         17.47624        9.04262      -10.54476
C         18.21605        8.31784      -11.51889
C         18.42846        6.90675      -11.34667
C         17.88879        6.27847      -10.20379
C         19.19591        6.22431      -12.34205
C         19.47138        4.74393      -12.25592
O         20.31252        4.38393      -13.32560
C         20.47017        2.98539      -13.50977
O         21.01856        2.87091      -14.78299
C         21.56293        1.57718      -15.06736
C         22.19026        1.65091      -16.46019
O         22.69858        0.38735      -16.87045
C         19.70209        6.93108      -13.40525
N         19.48073        8.28026      -13.54464
C         18.75960        8.95613      -12.64181
C         20.01667        8.96410      -14.74984
C         19.27520        8.58704      -16.04627
C         17.76919        8.85598      -15.95233
C         19.92623        9.34972      -17.20948
H          0.17952       -0.72733        1.17670
H          0.09402       -0.40509       -0.56582
H          0.20835        0.94329        0.58025
H          2.41138       -1.17402        0.11724
H          2.52511        0.16377        1.25531
H          2.34299        1.80169       -0.65056
H          2.22672        0.46319       -1.78935
H          4.51417       -0.33450       -1.08260
H          4.63119        1.00950        0.05011
H          4.44392        2.63949       -1.86370
H          4.32171        1.29653       -2.99630
H          6.61420        0.50415       -2.30099
H          6.73684        1.85341       -1.17491
H          6.51983        3.47346       -3.09709
H          6.40250        2.12252       -4.22049
H          8.71141        1.35924       -3.53008
H          8.82417        2.72466       -2.42256
H          8.54430        4.31035       -4.37984
H          8.48602        2.93062       -5.47275
H         10.81841        2.26843       -4.72481
H         10.86194        3.67797       -3.66895
H         10.52490        5.16779       -5.70742
H         10.59531        3.73666       -6.73224
H         12.93121        3.25838       -5.85772
H         12.84147        4.71714       -4.87444
H         12.51935        6.08330       -7.00348
H         12.72629        4.60783       -7.94611
H         15.02849        4.30641       -6.89771
H         14.80563        5.82419       -6.03153
H         14.55898        7.01991       -8.27200
H         14.88883        5.49392       -9.09164
H         17.12303        5.35514       -7.87815
H         16.79161        6.93182       -7.14761
H         16.42373        8.95565       -8.68756
H         17.32177       10.11434      -10.67782
H         18.04117        5.20968      -10.04938
H         18.51097        4.18903      -12.29946
H         19.93682        4.50935      -11.27667
H         19.47791        2.48446      -13.43634
H         21.15078        2.56467      -12.73651
H         20.77441        0.80299      -15.05313
H         22.32389        1.30819      -14.30838
H         22.96429        2.43768      -16.47782
H         21.41694        1.92759      -17.19096
H         23.54708        0.23086      -16.42837
H         20.30117        6.45029      -14.17409
H         18.62463       10.02150      -12.82376
H         21.08215        8.70485      -14.82060
H         19.94299       10.04387      -14.56126
H         19.42840        7.50736      -16.21841
H         17.56400        9.91865      -15.74828
H         17.28322        8.25687      -15.16921
H         17.27774        8.60522      -16.90076
H         19.77735       10.43536      -17.10796
H         19.47854        9.04210      -18.16301
H         21.00680        9.15907      -17.27137
