85

C         11.31381       -8.11457       16.37438
C         10.95645       -7.26544       15.15193
C         11.23431       -7.96941       13.81865
C         10.88393       -7.11960       12.59296
C         11.15541       -7.81912       11.25673
C         10.80861       -6.95724       10.03827
C         11.07461       -7.64562        8.69512
C         10.71634       -6.77164        7.48815
C         10.99054       -7.44378        6.13662
C         10.52802       -6.63978        4.90966
C         11.12585       -5.22519        4.76990
C         12.64264       -5.13559        4.85390
C         13.25739       -3.74148        4.94263
O         14.64906       -4.00318        4.74661
C         14.75826       -4.85403        3.64573
N         13.44714       -5.72352        3.66891
C         12.77005       -5.75786        2.31729
C         13.57118       -6.56310        1.29247
C         13.82535       -8.03453        1.66652
C         12.56400       -8.86836        1.92539
C         12.85094      -10.35577        2.15666
C         11.58717      -11.17164        2.44908
C         11.85271      -12.66548        2.66208
C         10.58241      -13.47535        2.94255
C         10.83890      -14.97356        3.14180
C          9.56328      -15.77444        3.41545
C         16.01442       -5.69817        3.74260
C         17.29214       -4.86111        3.77839
C         18.56369       -5.67948        3.89070
Br        18.61709       -6.63902        5.61283
Br        17.45199       -3.82628        2.08342
H         11.09932       -7.58215       17.31097
H         12.38220       -8.37776       16.37995
H         10.74303       -9.05501       16.38930
H         11.51891       -6.31676       15.18464
H          9.89048       -6.98468       15.19711
H         10.66743       -8.91649       13.78191
H         12.30026       -8.25538       13.77314
H         11.45319       -6.17384       12.63130
H          9.81909       -6.83129       12.64231
H         10.58053       -8.76065       11.21340
H         12.21889       -8.11264       11.20689
H         11.38302       -6.01466       10.08486
H          9.74555       -6.66382       10.09100
H         10.50221       -8.58773        8.64412
H         12.13890       -7.93562        8.63597
H         11.27254       -5.82001        7.56821
H          9.64875       -6.49519        7.54038
H         10.47922       -8.41882        6.10822
H         12.06667       -7.68966        6.05781
H          9.43374       -6.52677        4.94430
H         10.72888       -7.23074        4.00099
H         10.76089       -4.59912        5.59987
H         10.75384       -4.73440        3.85821
H         13.00273       -5.70589        5.72169
H         13.13368       -3.28874        5.93213
H         12.86135       -3.05353        4.17298
H         14.70143       -4.29613        2.69477
H         13.70229       -6.69161        3.90328
H         12.63625       -4.71634        1.99887
H         11.78101       -6.20173        2.46945
H         14.52102       -6.05569        1.06263
H         12.98548       -6.52256        0.36104
H         14.50055       -8.11104        2.54085
H         14.39899       -8.48809        0.84364
H         11.87337       -8.75521        1.07184
H         12.01709       -8.48160        2.80465
H         13.56313      -10.46785        2.99343
H         13.36030      -10.76890        1.26945
H         10.87280      -11.04444        1.61692
H         11.08534      -10.75884        3.34307
H         12.56320      -12.79652        3.49716
H         12.35709      -13.07553        1.76982
H          9.87055      -13.33636        2.10973
H         10.07966      -13.06961        3.83866
H         11.54865      -15.11269        3.97483
H         11.34230      -15.37617        2.24669
H          9.05611      -15.42153        4.32578
H          9.78082      -16.84242        3.55064
H          8.84873      -15.68470        2.58377
H         16.06287       -6.39705        2.89520
H         15.97975       -6.28769        4.67510
H         17.24338       -4.09511        4.56018
H         19.45009       -5.04007        3.88211
H         18.64259       -6.44335        3.10986
