70

C          0.70896       -0.77093        1.44989
C          2.22673       -0.70159        1.26918
C          2.81707        0.65510        1.66519
C          4.33723        0.73843        1.50068
C          4.91299        2.10333        1.88885
C          6.43952        2.18043        1.78554
C          6.99294        3.55314        2.17892
C          8.52393        3.62586        2.16191
C          9.03701        5.01000        2.58940
C         10.56175        5.03241        2.70282
S         11.18664        6.71068        3.08280
C         10.65914        6.97273        4.84905
C         11.11169        8.30998        5.34906
C         10.43336        9.48065        4.97272
C         10.84464       10.71960        5.45876
C         11.93769       10.83180        6.33503
C         12.61402        9.65580        6.70105
C         12.21239        8.41216        6.21603
C         12.35160       12.16578        6.89404
C         12.97544        6.46516        3.29157
C         13.72133        6.42000        1.95948
C         15.22431        6.24066        2.28580
O         15.58833        6.08448        3.44873
N         16.03993        6.26760        1.19368
C         17.44938        6.10600        1.11844
C         18.26589        5.93739        2.24764
C         19.64320        5.78554        2.06920
C         20.21355        5.79929        0.79441
C         19.39316        5.96815       -0.32510
C         18.01769        6.12120       -0.16625
H          0.31248       -1.75174        1.15460
H          0.20056       -0.00887        0.84083
H          0.42527       -0.59913        2.49884
H          2.48441       -0.91526        0.21815
H          2.70744       -1.49459        1.86646
H          2.55319        0.87282        2.71530
H          2.33988        1.44840        1.06318
H          4.60600        0.51258        0.45396
H          4.81403       -0.04683        2.11308
H          4.60960        2.34405        2.92294
H          4.46281        2.88414        1.25137
H          6.75382        1.93738        0.75599
H          6.88738        1.40680        2.43315
H          6.63347        3.81126        3.19028
H          6.58200        4.32235        1.50273
H          8.90187        3.38814        1.15356
H          8.93355        2.85646        2.83814
H          8.58361        5.27050        3.55850
H          8.70391        5.76945        1.86413
H         11.03853        4.77206        1.74580
H         10.94122        4.35365        3.48109
H         11.06891        6.13150        5.42461
H          9.56520        6.88878        4.80105
H          9.57171        9.42422        4.30327
H         10.30092       11.61853        5.16299
H         13.46429        9.71423        7.38277
H         12.74574        7.51291        6.53267
H         11.92706       12.99607        6.31687
H         13.44452       12.27280        6.90784
H         12.00484       12.27169        7.93358
H         13.13631        5.55661        3.88633
H         13.29937        7.32660        3.89280
H         13.56006        7.34589        1.38647
H         13.38389        5.58031        1.33182
H         15.58744        6.41143        0.29476
H         17.82664        5.92346        3.24080
H         20.27670        5.65412        2.94707
H         21.28996        5.67973        0.67186
H         19.82303        5.98125       -1.32693
H         17.37753        6.25091       -1.04294
