42

C          1.30142        3.54853        0.81665
C          2.81718        3.45301        0.63651
C          3.20287        2.70040       -0.64273
C          4.68744        2.53603       -0.81338
O          5.53363        2.57538        0.05764
O          5.01896        2.31649       -2.13917
C          6.40731        2.04577       -2.37679
C          7.17769        3.36948       -2.33781
N          8.66596        3.18843       -2.53419
C          9.36208        2.33616       -1.51569
C         10.48085        1.63190       -1.95743
C         11.19468        0.85560       -1.04392
C         10.78452        0.79675        0.29027
C          9.64964        1.49602        0.70734
C          8.91889        2.27285       -0.19681
C          9.37011        4.53734       -2.83088
C          9.23231        5.62793       -1.76810
C         10.01326        5.47337       -0.47141
Br        11.90149        5.03075       -0.71470
Br         9.76940        7.27607       -2.71022
H          1.05171        4.09959        1.73233
H          0.84254        2.55216        0.89381
H          0.82421        4.07074       -0.02530
H          3.27293        2.94887        1.50082
H          3.25679        4.46264        0.60554
H          2.79397        3.17907       -1.54530
H          2.77598        1.68076       -0.63466
H          6.44878        1.58436       -3.37316
H          6.79044        1.34123       -1.62623
H          7.02189        3.86289       -1.37395
H          6.83484        4.03782       -3.13852
H          8.77851        2.67362       -3.41939
H         10.80593        1.68667       -2.99945
H         12.07019        0.30018       -1.37864
H         11.34483        0.19424        1.00468
H          9.31467        1.43331        1.74238
H          8.00802        2.77124        0.13561
H          8.92463        4.88110       -3.77168
H         10.42999        4.29983       -2.99000
H          8.18037        5.81302       -1.51099
H          9.59979        4.66429        0.14060
H          9.98705        6.40658        0.09896
