78

C          4.90193        0.07773        4.21110
C          6.34974        0.06845        3.71367
C          6.65470       -1.08796        2.75485
C          8.10290       -1.11003        2.25563
C          8.39865       -2.25850        1.28573
C          9.84611       -2.28524        0.78449
C         10.12245       -3.41150       -0.21673
C         11.56483       -3.43741       -0.73204
C         11.81447       -4.53026       -1.77727
C         13.25345       -4.54530       -2.30945
C         13.55434       -5.67040       -3.31120
C         12.76796       -5.51011       -4.61713
N         13.06009       -6.58740       -5.57464
N         14.11145       -6.44562       -6.44137
C         14.14996       -7.56699       -7.13030
N         13.13696       -8.39845       -6.69529
C         12.45554       -7.77106       -5.70508
C         11.30833       -8.33112       -4.93913
C         11.60273       -9.73796       -4.37178
C         12.78686       -9.77810       -3.40084
C         13.11669      -11.19198       -2.91255
C         14.30811      -11.24015       -1.94906
C         14.64485      -12.65748       -1.48028
C         15.14297       -7.92138       -8.17694
C         16.12371       -9.02633       -7.72264
C         17.13101       -9.39450       -8.81615
C         18.11299      -10.49008       -8.38502
C         19.10833      -10.86642       -9.48515
H          4.71573        0.91773        4.89417
H          4.65922       -0.84946        4.75165
H          4.19243        0.16659        3.37482
H          7.03589        0.01497        4.57594
H          6.57316        1.02455        3.21034
H          5.97092       -1.03164        1.88906
H          6.42612       -2.04566        3.25569
H          8.78665       -1.17591        3.12019
H          8.33347       -0.14916        1.76248
H          7.71570       -2.18756        0.42055
H          8.16434       -3.22012        1.77579
H         10.53095       -2.38313        1.64473
H         10.08799       -1.31541        0.31535
H          9.43236       -3.31024       -1.07348
H          9.88322       -4.38330        0.25036
H         12.25857       -3.57653        0.11483
H         11.81460       -2.45527       -1.16953
H         11.09825       -4.38410       -2.60539
H         11.57822       -5.51704       -1.33954
H         13.95044       -4.65415       -1.46410
H         13.49213       -3.57109       -2.76918
H         13.31346       -6.64765       -2.86084
H         14.62785       -5.68530       -3.55273
H         13.03460       -4.57904       -5.13278
H         11.68381       -5.50577       -4.45045
H         12.93533       -9.33377       -7.03868
H         10.42927       -8.36486       -5.60378
H         11.06025       -7.63668       -4.12549
H         11.76969      -10.44659       -5.20185
H         10.68802      -10.08863       -3.87165
H         12.56684       -9.13018       -2.53483
H         13.68396       -9.34578       -3.88037
H         13.32543      -11.83845       -3.78356
H         12.22906      -11.62609       -2.42151
H         14.09274      -10.60272       -1.07511
H         15.18999      -10.79367       -2.43996
H         13.79467      -13.11864       -0.95708
H         15.49770      -12.65654       -0.78923
H         14.90480      -13.30863       -2.32785
H         15.68873       -7.00238       -8.43009
H         14.61075       -8.24063       -9.08808
H         15.55902       -9.92844       -7.42812
H         16.65287       -8.68399       -6.81893
H         17.69228       -8.49206       -9.11313
H         16.58705       -9.72482       -9.71841
H         17.54533      -11.38545       -8.07989
H         18.66018      -10.15663       -7.48777
H         18.59223      -11.23819      -10.38241
H         19.79449      -11.65379       -9.14756
H         19.71724      -10.00194       -9.78713
