41

C          1.26543       -0.50861        0.62583
C          2.42267       -0.28186        0.37470
N          3.72215       -0.00684        0.09883
C          4.25539        1.26933       -0.09809
C          5.58034        1.09401       -0.34300
N          5.84701       -0.26656       -0.29617
C          4.71421       -0.94477       -0.02868
C          4.51204       -2.40771        0.10980
C          5.03135       -3.00187        1.41619
C          5.41237       -4.34664        1.44158
C          5.87745       -4.90847        2.63221
C          5.97918       -4.13094        3.78495
C          5.60536       -2.77763        3.77756
C          5.12257       -2.23323        2.58154
C          5.72587       -1.93561        5.01961
C          7.20544       -0.85147       -0.43509
C          7.87520       -1.11759        0.89645
C          8.34480       -2.40387        1.18152
C          8.95936       -2.67451        2.40532
C          9.10537       -1.65933        3.35225
C          8.64188       -0.37077        3.07107
C          8.03309       -0.09819        1.84597
H          0.23674       -0.71144        0.84769
H          3.63542        2.15553       -0.05089
H          6.35504        1.81994       -0.55748
H          4.99719       -2.90992       -0.74218
H          3.43163       -2.59675        0.00270
H          5.34694       -4.95590        0.53796
H          6.16982       -5.95876        2.65601
H          6.35771       -4.57750        4.70624
H          4.83650       -1.17805        2.57009
H          5.04176       -2.28842        5.80538
H          5.49434       -0.88221        4.81797
H          6.74386       -1.98464        5.43089
H          7.77156       -0.13586       -1.04734
H          7.11218       -1.77824       -1.01515
H          8.21656       -3.20476        0.45152
H          9.31485       -3.68214        2.61991
H          9.58348       -1.86951        4.30935
H          8.76229        0.42655        3.80482
H          7.68351        0.91569        1.64014
