31

C          5.41051       -1.77171        0.12343
C          4.33404       -0.69117       -0.01252
C          2.88855       -1.23154        0.24591
C          2.59964       -1.69019        1.62804
N          2.11538       -0.93521        2.63231
N          1.75796        0.40049        2.50596
N          1.93765       -1.63718        3.79239
C          2.31837       -2.85201        3.48288
N          2.74444       -2.92964        2.17347
C          3.16159       -4.16850        1.50337
C          2.01077       -5.13981        1.28490
C          0.60365       -4.74001        1.14511
O          1.10673       -5.29904        2.37996
C          4.66207        0.53942        0.83846
H          5.22415       -2.62738       -0.54171
H          5.49807       -2.13928        1.15814
H          6.39117       -1.36082       -0.14968
H          4.30527       -0.37333       -1.06723
H          2.67939       -2.05900       -0.44778
H          2.16923       -0.42714        0.03297
H          0.86881        0.52849        2.99696
H          2.46695        0.98037        2.96403
H          2.29655       -3.70254        4.15591
H          3.92709       -4.64176        2.13506
H          3.63656       -3.90903        0.55067
H          2.34158       -6.07376        0.81559
H         -0.08195       -5.38536        0.59077
H          0.31634       -3.68504        1.19936
H          4.74629        0.28584        1.90782
H          3.91017        1.33096        0.71989
H          5.63244        0.95484        0.53731
