57

C          0.96619        1.20052        0.88929
C          2.48739        1.03729        0.88208
C          2.95461       -0.30797        1.44685
C          4.47481       -0.48969        1.41266
C          4.94749       -1.82067        2.00507
C          6.46515       -2.01321        1.93364
C          6.94455       -3.32525        2.56337
C          8.46331       -3.51182        2.48354
C          8.94180       -4.79688        3.16555
C         10.48370       -4.96349        3.09201
C         10.95033       -6.14338        3.88840
C         11.06897       -7.40748        3.28532
C         11.44408       -8.51928        4.01630
N         11.70052       -8.40257        5.34256
C         11.60798       -7.19600        5.95529
C         11.23891       -6.04204        5.27620
C         11.16988       -4.74203        6.02710
C         12.13948       -9.59681        6.10914
C         13.66391       -9.77040        6.06228
C         14.09104      -11.17055        6.51338
C         13.68167      -12.24213        5.50261
O         13.03851      -12.00898        4.50179
O         14.07384      -13.50736        5.77683
H          0.66432        2.17635        0.48522
H          0.56196        1.12340        1.90965
H          0.47963        0.42333        0.28148
H          2.94987        1.85271        1.46343
H          2.86555        1.14793       -0.14820
H          2.47689       -1.12643        0.87994
H          2.59601       -0.41045        2.48630
H          4.95414        0.34148        1.95917
H          4.82699       -0.40884        0.36941
H          4.44951       -2.65298        1.47768
H          4.61902       -1.88822        3.05703
H          6.96442       -1.16653        2.43653
H          6.78906       -1.97390        0.87921
H          6.44371       -4.17529        2.06860
H          6.62776       -3.35755        3.62068
H          8.96340       -2.64592        2.95088
H          8.78111       -3.51540        1.42707
H          8.46475       -5.67502        2.70105
H          8.61935       -4.79513        4.21998
H         10.95974       -4.04379        3.46233
H         10.78193       -5.08493        2.04052
H         10.86483       -7.53005        2.22149
H         11.55505       -9.51667        3.59078
H         11.83600       -7.18914        7.02097
H         11.38918       -4.88254        7.09186
H         10.17587       -4.28282        5.94103
H         11.89474       -4.01972        5.62406
H         11.64474      -10.46230        5.65453
H         11.77335       -9.47843        7.13745
H         14.15048       -9.00982        6.68961
H         14.00672       -9.61918        5.02862
H         13.66791      -11.42846        7.49906
H         15.18506      -11.20138        6.63592
H         14.59333      -13.54456        6.60001
