89

C          0.62161        0.20534       -0.25294
C          2.14989        0.12241       -0.22402
C          2.72278       -0.07424        1.18396
C          4.25203       -0.15509        1.21941
C          4.82894       -0.34931        2.62525
C          6.35868       -0.42707        2.65354
C          6.94187       -0.61543        4.05741
C          8.47182       -0.69181        4.08050
C          9.05727       -0.87841        5.48373
C         10.58746       -0.94983        5.50692
C         11.17131       -1.13467        6.91129
C         12.70168       -1.20568        6.93505
C         13.28297       -1.38896        8.34071
C         14.81385       -1.45611        8.36627
C         15.38510       -1.63590        9.77746
C         16.91714       -1.68563        9.81058
C         17.45900       -1.87899       11.23020
C         19.01397       -1.89301       11.26737
C         19.49621       -2.15360       12.65025
N         19.69486       -3.36629       13.12204
C         19.85542       -3.51617       14.58328
C         20.35456       -2.13362       15.07763
S         19.72814       -0.92023       13.80937
C         21.87343       -2.02259       15.22646
C         22.35783       -0.67403       15.77123
C         23.87560       -0.58091       15.82458
F         24.39855       -0.71779       14.52693
C         18.53871       -3.97849       15.22679
C         18.00217       -5.30896       14.68654
C         16.72724       -5.77146       15.40129
C         16.15833       -7.07773       14.83626
C         14.87500       -7.52558       15.53897
H          0.24379        0.34719       -1.27493
H          0.25571        1.04564        0.35596
H          0.16432       -0.71281        0.14548
H          2.57742        1.03973       -0.66346
H          2.48685       -0.70561       -0.87068
H          2.29756       -0.99348        1.62481
H          2.38529        0.75343        1.83292
H          4.67536        0.76394        0.77669
H          4.58827       -0.98304        0.57042
H          4.40826       -1.26905        3.06892
H          4.49350        0.47831        3.27502
H          6.77796        0.49120        2.20557
H          6.69317       -1.25663        2.00577
H          6.52386       -1.53383        4.50633
H          6.60843        0.21437        4.70538
H          8.88908        0.22639        3.63060
H          8.80519       -1.52181        3.43278
H          8.64246       -1.79831        5.93252
H          8.72129       -0.04982        6.13190
H         11.00232       -0.03023        5.05781
H         10.92413       -1.77886        4.85977
H         10.75631       -2.05424        7.36049
H         10.83460       -0.30534        7.55803
H         13.11660       -0.28628        6.48599
H         13.03885       -2.03539        6.28927
H         12.86972       -2.30932        8.78966
H         12.94442       -0.55975        8.98640
H         15.22823       -0.53597        7.91908
H         15.15589       -2.28634        7.72424
H         14.97867       -2.56205       10.22020
H         15.03391       -0.81098       10.42113
H         17.32626       -0.75392        9.38494
H         17.27698       -2.50409        9.16400
H         17.08050       -2.82526       11.65111
H         17.09333       -1.07420       11.88685
H         19.40718       -0.93166       10.90980
H         19.39805       -2.67807       10.59719
H         19.55759       -4.18297       12.52822
H         20.64298       -4.26615       14.75751
H         19.84677       -1.87122       16.01654
H         22.35827       -2.22879       14.25908
H         22.18550       -2.82859       15.91347
H         21.96677       -0.50647       16.78853
H         21.98494        0.15283       15.14432
H         24.31657       -1.38122       16.44025
H         24.20182        0.39431       16.21352
H         17.78064       -3.18656       15.10260
H         18.72673       -4.06623       16.30914
H         18.77906       -6.08808       14.77891
H         17.77869       -5.21858       13.60803
H         15.96268       -4.97825       15.33098
H         16.93782       -5.89583       16.47722
H         16.92091       -7.87054       14.91603
H         15.96380       -6.95137       13.75735
H         15.04371       -7.69347       16.61248
H         14.49460       -8.46304       15.11299
H         14.08106       -6.77064       15.44159
