50

O          4.77415        0.23621        1.66724
C          4.29027        0.49647        0.33876
C          4.73215        1.88535       -0.06271
O          6.17446        1.88576       -0.13886
C          6.77145        3.13671       -0.08601
O          6.65450        3.77895        1.20714
C          6.98473        2.94101        2.31010
C          8.46130        2.68807        2.41869
N          9.10624        1.51193        2.46198
N         10.45217        1.67043        2.60377
C         10.62183        2.96916        2.62868
N          9.43048        3.63662        2.50115
C          9.23349        5.08190        2.60137
C          8.71868        5.43423        4.02957
O          8.39809        4.51396        4.78543
N          8.63541        6.74865        4.34104
C          8.98428        7.85452        3.43720
C          7.78400        8.42612        2.67909
C          8.12787        7.11197        5.68071
C          9.24693        7.26911        6.70955
C          8.54470        0.14609        2.38611
C          9.32425       -0.72692        1.45175
C          9.92607       -1.88185        1.75652
Br         9.97825       -2.62373        3.49027
Br         9.38477       -0.13891       -0.36177
H          4.34989       -0.57261        1.99144
H          3.18866        0.45928        0.30071
H          4.69183       -0.24370       -0.37471
H          4.38942        2.62104        0.68241
H          4.30981        2.14612       -1.04818
H          6.31756        3.87063       -0.77219
H          7.83237        2.96888       -0.33866
H          6.44616        1.98219        2.27229
H          6.67283        3.47906        3.21678
H         11.58309        3.46364        2.72837
H          8.50613        5.38821        1.83811
H         10.19656        5.55499        2.37503
H          9.76138        7.52695        2.73340
H          9.45243        8.63649        4.05327
H          7.31979        7.67273        2.02745
H          8.10399        9.26961        2.05272
H          7.01452        8.79569        3.36970
H          7.42774        6.32743        5.99134
H          7.56248        8.04802        5.56964
H          9.78275        6.32173        6.85004
H          8.82217        7.56636        7.67756
H          9.96923        8.04192        6.41117
H          7.49903        0.23844        2.05691
H          8.57130       -0.28579        3.39750
H         10.43264       -2.49430        1.01395
