57

C          8.40696        2.89988        5.21103
C          7.96768        2.24272        3.90075
C          8.61934        2.86007        2.65823
C          8.16726        2.21105        1.34655
C          8.80643        2.82403        0.09646
C          8.31574        2.18869       -1.20830
C          8.94634        2.79039       -2.46843
C          8.38920        2.18477       -3.76311
C          8.95501        2.79014       -5.05608
C         10.42184        2.42815       -5.33535
C         10.95638        2.98919       -6.66308
C         11.20170        4.50411       -6.59234
N         11.47591        5.14699       -7.89729
C         12.64911        4.97040       -8.51655
N         12.84120        5.39337       -9.79646
N         14.02610        5.28443      -10.50661
N         13.67993        4.36733       -7.89884
C         10.38940        5.97614       -8.46710
C          9.21503        5.18284       -9.05422
C          9.57206        4.28389      -10.23966
H          7.91967        2.43347        6.07811
H          8.15421        3.97074        5.22572
H          9.49427        2.81612        5.35703
H          6.87079        2.31121        3.80416
H          8.19938        1.16458        3.93272
H          9.71785        2.78427        2.74672
H          8.39409        3.94106        2.62808
H          7.06850        2.28617        1.26505
H          8.39213        1.13036        1.37745
H          9.90497        2.72858        0.16231
H          8.59844        3.90855        0.07437
H          7.21800        2.29025       -1.27034
H          8.51539        1.10308       -1.18534
H         10.04104        2.65596       -2.41970
H          8.77366        3.88196       -2.47765
H          7.29492        2.31405       -3.76960
H          8.56159        1.09447       -3.76751
H          8.82738        3.88696       -5.01310
H          8.34723        2.44616       -5.91040
H         10.51660        1.33142       -5.36288
H         11.06841        2.76190       -4.50615
H         10.23382        2.78296       -7.46803
H         11.88437        2.46786       -6.94316
H         12.01025        4.74674       -5.88049
H         10.31309        5.01185       -6.19813
H         12.03171        5.65075      -10.34962
H         14.33560        4.32642      -10.66674
H         14.76000        5.90924      -10.17850
H         13.65989        4.18946       -6.90405
H         14.56613        4.29005       -8.38294
H         10.81876        6.66178       -9.21130
H         10.03625        6.61557       -7.64490
H          8.45955        5.92402       -9.35697
H          8.74295        4.58829       -8.25658
H          9.96000        4.86432      -11.09179
H          8.68398        3.75084      -10.60166
H         10.31852        3.52123       -9.97260
