37

S          4.07298       -1.45827       -1.03017
C          3.50311        0.07425       -1.17264
N          2.36666        0.42007       -1.90555
C          1.39982       -0.47720       -2.38396
N          0.42684        0.14300       -2.98947
C          0.74006        1.49755       -2.93265
C          1.91589        1.69811       -2.26906
S          4.22403        1.50316       -0.40319
C          5.71465        0.78430        0.34159
C          6.36410        1.84484        1.23676
C          7.70486        1.31876        1.79189
P          8.46553        2.49212        2.93174
N          7.62326        2.35350        4.44112
O          8.00497        1.08603        4.97749
O          8.16325        3.39642        5.25699
C         10.26723        2.34974        3.17776
C         11.14492        2.36234        1.91400
C         10.93046        3.58212        1.03270
F         11.09284        4.73968        1.71231
F         11.74369        3.58523       -0.02846
F          9.62748        3.58986        0.55422
H          1.50274       -1.54464       -2.21859
H          0.09650        2.24434       -3.38746
H          2.48910        2.59382       -2.06231
H          6.39083        0.46108       -0.46329
H          5.41779       -0.11031        0.90765
H          5.68393        2.10313        2.06231
H          6.54920        2.76719        0.66477
H          8.42700        1.13949        0.98091
H          7.58944        0.37503        2.34855
H          8.12732        3.80854        2.56529
H          7.19475        0.76581        5.41950
H          7.38188        3.75742        5.71946
H         10.41897        1.41264        3.73447
H         10.52629        3.17715        3.85621
H         10.98532        1.47127        1.29252
H         12.19916        2.35875        2.22351
