73

C          0.72286        0.11452       -0.07628
C          2.24504        0.12885        0.08415
C          2.80694       -1.17660        0.65753
C          4.33110       -1.17918        0.80934
C          4.89011       -2.48841        1.37496
C          6.41597       -2.49917        1.50942
C          6.97409       -3.81053        2.07099
C          8.50089       -3.82568        2.19309
C          9.06034       -5.13643        2.75489
C         10.58796       -5.15060        2.86649
C         11.15294       -6.46027        3.42558
C         12.68181       -6.46916        3.52079
C         13.25693       -7.77942        4.06835
C         14.78837       -7.78305        4.12178
C         15.36980       -9.10313        4.63784
C         16.89431       -9.13272        4.63211
O         17.45418       -8.97569        3.29659
C         17.63797      -10.22537        2.75996
N         18.25846      -11.03967        3.95382
C         17.49864      -10.47568        5.13782
C         19.77744      -10.99234        4.10047
C         20.28488       -9.67375        4.41136
C         20.75051       -8.59380        4.68663
C         18.50151      -10.21160        1.51416
O         18.75902      -11.56828        1.21101
C         19.38323      -11.76329       -0.08062
C         19.56730      -13.24921       -0.30095
H          0.35098        1.06278       -0.48850
H          0.22070       -0.04670        0.88946
H          0.40017       -0.69079       -0.75314
H          2.53982        0.96816        0.73686
H          2.71720        0.32793       -0.89300
H          2.50400       -2.01787        0.00894
H          2.34102       -1.37272        1.63963
H          4.63518       -0.34073        1.46067
H          4.79499       -0.97974       -0.17296
H          4.57594       -3.32739        0.72909
H          4.43524       -2.68317        2.36226
H          6.73181       -1.66159        2.15614
H          6.86975       -2.30351        0.52172
H          6.65163       -4.64871        1.42824
H          6.52672       -4.00277        3.06215
H          8.82428       -2.98681        2.83433
H          8.94732       -3.63478        1.20112
H          8.73325       -5.97619        2.11658
H          8.61950       -5.32517        3.74957
H         10.91521       -4.31086        3.50446
H         11.02722       -4.96073        1.87113
H         10.82180       -7.30126        2.79103
H         10.72223       -6.64824        4.42463
H         13.01383       -5.63082        4.15768
H         13.10935       -6.27569        2.52114
H         12.91200       -8.61967        3.44001
H         12.85037       -7.96847        5.07698
H         15.13907       -6.95662        4.76353
H         15.18971       -7.57978        3.11598
H         14.97722       -9.94961        4.04539
H         15.03834       -9.28492        5.67520
H         17.30200       -8.28714        5.20271
H         16.69777      -10.77804        2.56311
H         18.01841      -12.02694        3.80299
H         18.19651      -10.33838        5.96959
H         16.72248      -11.19618        5.42134
H         20.18332      -11.38889        3.15848
H         20.02138      -11.70443        4.90380
H         21.16819       -7.63560        4.92402
H         19.42416       -9.62392        1.67997
H         17.92436       -9.70734        0.71698
H         20.35003      -11.22849       -0.09841
H         18.73425      -11.31873       -0.85590
H         20.22088      -13.68822        0.46480
H         20.03232      -13.42330       -1.28019
H         18.60263      -13.77297       -0.28494
