77

O          3.67448       -0.04361        1.68941
C          3.83600       -0.31304        0.49583
N          2.86954       -0.84793       -0.30689
C          1.53782       -1.20965        0.02566
C          0.90906       -2.16258       -0.78935
C         -0.39895       -2.55926       -0.52083
C         -1.08983       -2.01276        0.56380
C         -0.46378       -1.05686        1.36694
C          0.84462       -0.64460        1.10668
C          5.16313       -0.02000       -0.21272
C          6.33945        0.01513        0.76641
C          7.03524       -1.34687        0.96320
O          6.15535       -2.44811        1.21031
C          5.62325       -2.52924        2.54817
C          4.75648       -3.77739        2.65157
C          3.46781       -3.63215        1.83716
C          2.45900       -4.77215        1.98781
C          2.45337       -5.88488        0.87618
C          3.71940       -6.79822        0.65554
C          4.19791       -7.73890        1.82221
F          3.18168       -8.45186        2.32466
F          5.12819       -8.58034        1.33776
F          4.76448       -7.02032        2.81783
F          3.43393       -7.59680       -0.40106
F          4.77791       -5.99999        0.31583
F          1.39348       -6.70104        1.09317
F          2.26297       -5.24554       -0.32042
F          2.57012       -5.39961        3.20712
F          1.19286       -4.24336        1.93946
C          6.75596       -2.57430        3.56183
N          7.55381       -1.29296        3.41027
C          8.14902       -1.26883        2.02392
C          8.54764       -1.02585        4.52628
C          7.88190       -0.18515        5.62339
O          6.70853       -0.91677        5.95761
C          5.57509       -0.19834        6.51045
C          4.35431       -0.99648        6.13812
C          4.05141       -2.18280        6.82537
C          2.98440       -2.98484        6.41630
C          2.19929       -2.60177        5.32341
C          2.48632       -1.41662        4.64217
C          3.56364       -0.62152        5.04289
C          8.81703        0.05109        6.80586
H          3.15649       -1.09446       -1.24992
H          1.45137       -2.60139       -1.63022
H         -0.87485       -3.30476       -1.15782
H         -2.11112       -2.32722        0.77792
H         -1.00134       -0.61448        2.20657
H          1.32372        0.11016        1.72415
H          5.05417        0.97180       -0.67961
H          5.34234       -0.73324       -1.03143
H          5.95383        0.42803        1.71501
H          7.10668        0.71428        0.40228
H          7.52936       -1.61470        0.01578
H          4.99859       -1.63850        2.75426
H          4.49925       -3.92272        3.71043
H          5.34870       -4.64452        2.33137
H          3.68649       -3.49709        0.77080
H          2.93390       -2.73205        2.16910
H          7.44820       -3.40783        3.37696
H          6.37601       -2.60136        4.58646
H          6.85227       -0.53616        3.46831
H          8.82704       -2.12961        1.96150
H          8.72894       -0.34313        1.91643
H          9.41013       -0.50254        4.09531
H          8.87702       -1.99889        4.91307
H          7.58970        0.79443        5.18498
H          5.53443        0.81540        6.07601
H          5.69392       -0.10835        7.60252
H          4.65832       -2.48014        7.68285
H          2.75805       -3.90608        6.95375
H          1.36486       -3.22695        5.00377
H          1.87650       -1.11154        3.79243
H          3.78279        0.29843        4.49640
H          9.10725       -0.90295        7.26610
H          8.31505        0.66090        7.56731
H          9.72560        0.58762        6.49789
