59

C          0.96098        0.26322        3.02909
C         -0.05036        0.43422        1.92836
C         -0.79254       -0.65058        1.44237
C         -1.72337       -0.48561        0.41097
C         -1.93066        0.77584       -0.16131
C         -1.18570        1.86674        0.31492
C         -0.26414        1.69559        1.34191
C         -2.97494        0.97653       -1.23678
N         -4.02111        1.91663       -0.79960
N         -4.34601        3.01797       -1.58158
C         -5.24054        3.66121       -0.85928
N         -5.48632        3.01866        0.33888
C         -4.68804        1.91777        0.36296
N         -4.62676        0.98664        1.34428
C         -5.15534        1.29302        2.65795
O         -4.38968        2.35809        3.19498
C         -4.94668        3.16216        4.18516
C         -6.08992        2.78920        4.89474
C         -6.62735        3.62919        5.88574
C         -7.85158        3.20848        6.65714
C         -5.97830        4.83974        6.13849
C         -4.82465        5.19039        5.43191
C         -4.26986        4.37427        4.44111
C         -2.98760        4.80546        3.73995
C         -1.78975        3.89996        4.08986
C         -3.12931        4.97870        2.21360
N         -5.90270        4.80320       -1.21560
N         -5.38252        5.57085       -2.27549
N         -6.47585        5.48351       -0.11776
H          0.87874       -0.71977        3.50759
H          0.84265        1.03560        3.80205
H          1.98386        0.35828        2.63442
H         -0.63972       -1.64208        1.87216
H         -2.27942       -1.35076        0.04045
H         -1.33421        2.85845       -0.11782
H          0.30489        2.55544        1.69972
H         -3.44718        0.02418       -1.52037
H         -2.55955        1.43168       -2.14498
H         -6.01890        3.44325        1.09589
H         -3.77599        0.41764        1.32047
H         -5.07562        0.37911        3.26605
H         -6.22089        1.56963        2.57624
H         -6.56775        1.82479        4.71502
H         -8.69234        2.98045        5.98581
H         -8.17628        3.99455        7.34910
H         -7.65513        2.30195        7.24888
H         -6.36826        5.51281        6.90332
H         -4.32810        6.13627        5.65896
H         -2.76491        5.80423        4.14890
H         -1.92231        2.88503        3.69178
H         -1.65784        3.82738        5.17734
H         -0.86338        4.31290        3.66414
H         -3.16034        4.00817        1.70245
H         -2.27067        5.53794        1.81531
H         -4.04259        5.53784        1.96226
H         -5.80253        5.25901       -3.15328
H         -4.36742        5.44305       -2.33998
H         -7.38727        5.83929       -0.41165
H         -5.89034        6.29310        0.11723
