52

C          2.34879       -3.09470        4.48190
C          2.08836       -1.84029        3.64535
C          2.71341       -0.56803        4.23843
C          4.22339       -0.53264        4.31100
O          4.87590       -0.04673        5.21704
O          4.80510       -1.08489        3.20018
C          6.24294       -0.98813        3.13711
C          6.90951       -2.00512        4.07389
N          8.38088       -1.92360        3.98241
C          9.08182       -3.15366        3.60986
C          9.04564       -4.19224        4.74403
N          9.64241       -3.55870        5.98935
C          9.00303       -2.22756        6.36704
C          9.05124       -1.30717        5.13843
C          8.55631        0.10532        5.45597
C          9.18050        1.10434        4.47783
O         10.27707        0.94847        3.97477
O          8.37391        2.15948        4.29199
C          8.89621        3.25013        3.45552
C          9.68525        4.24129        4.28902
C          8.60149       -3.76609        2.27580
C          9.41141       -4.91146        1.88226
C         10.09533       -5.86322        1.58250
H          1.86130       -3.97249        4.03762
H          1.96198       -2.98064        5.50497
H          3.42470       -3.31626        4.55342
H          1.00448       -1.67113        3.56620
H          2.45496       -1.98478        2.61934
H          2.34820       -0.37683        5.25666
H          2.42115        0.30471        3.62975
H          6.55662        0.03392        3.38932
H          6.50187       -1.19628        2.09162
H          6.55443       -3.01173        3.80590
H          6.55575       -1.81362        5.09843
H         10.13949       -2.87164        3.45353
H          9.63910       -5.08609        4.51076
H          8.01901       -4.48991        4.99832
H         10.64577       -3.39480        5.81599
H          9.58447       -4.21428        6.77879
H          9.57492       -1.83061        7.21621
H          7.97832       -2.45049        6.69398
H         10.11257       -1.18399        4.84728
H          8.90436        0.40182        6.45944
H          7.46112        0.19261        5.47051
H          7.99287        3.70163        3.02885
H          9.50521        2.80910        2.65652
H          9.07558        4.64126        5.10948
H          9.99428        5.08279        3.65388
H         10.59122        3.78074        4.70282
H          8.65855       -2.97609        1.51054
H          7.54445       -4.07129        2.33907
H         10.68710       -6.70350        1.28127
