75

C          2.44073       -0.37604        0.41882
C          3.74569       -0.04655       -0.27846
O          4.70269        0.49710        0.67479
P          5.19827        2.03838        0.58670
O          4.58520        2.79795       -0.52875
O          5.00775        2.59910        2.07310
C          3.67249        2.83531        2.60900
C          3.81648        3.66372        3.86819
C          7.00880        1.87718        0.55808
C          7.47439        1.13082       -0.70336
C          8.82665        0.42466       -0.50826
C          9.04539       -0.80799       -1.41550
N         10.28298       -1.50837       -1.01425
C         10.28291       -2.55147       -0.17581
N         11.45772       -3.01425        0.31907
N          9.14115       -3.13299        0.19929
C          7.77095       -2.76036       -0.24758
C          7.93898       -1.87425       -1.49788
C          7.01696       -2.01600        0.87724
C          6.96212       -2.66186        2.27358
C          6.15097       -1.77819        3.19768
C          6.74810       -0.68511        3.84154
C          5.98862        0.18585        4.62481
C          4.61754       -0.03077        4.78094
C          4.01244       -1.11906        4.14871
C          4.77491       -1.98381        3.36100
C          7.06112       -4.10122       -0.62734
C          5.61204       -3.94937       -1.03375
C          4.58173       -4.12093       -0.09844
C          3.24721       -3.92103       -0.44961
C          2.88717       -3.55056       -1.75273
C          3.91630       -3.40823       -2.69685
C          5.25093       -3.60896       -2.34695
C          1.44598       -3.34886       -2.13943
H          1.74939       -0.84740       -0.29353
H          1.96153        0.53298        0.80609
H          2.60603       -1.07056        1.25268
H          3.60081        0.68217       -1.08850
H          4.20812       -0.95503       -0.69445
H          3.21617        1.85543        2.81958
H          3.06997        3.35502        1.84909
H          4.44329        3.14744        4.60706
H          2.82791        3.83772        4.31483
H          4.27023        4.63828        3.64731
H          7.28146        1.32559        1.47140
H          7.44750        2.88118        0.63797
H          7.51401        1.81949       -1.55832
H          6.70984        0.38485       -0.95902
H          8.93322        0.11107        0.54113
H          9.65364        1.13022       -0.68884
H          9.21778       -0.45992       -2.44526
H         11.17524       -1.08719       -1.25033
H         12.33394       -2.63997       -0.02345
H         11.50342       -3.93999        0.72702
H          9.20682       -3.88314        0.88100
H          6.97787       -1.40413       -1.73113
H          8.18450       -2.51995       -2.35414
H          5.99144       -1.85171        0.52268
H          7.44465       -1.01738        1.00286
H          7.97900       -2.77709        2.68522
H          6.51553       -3.66594        2.23590
H          7.82323       -0.51619        3.73558
H          6.46903        1.03156        5.11803
H          4.02379        0.64209        5.40055
H          2.94379       -1.29843        4.27330
H          4.29271       -2.82883        2.86509
H          7.12181       -4.78059        0.23835
H          7.64156       -4.56973       -1.43725
H          4.82291       -4.42298        0.92210
H          2.46952       -4.05820        0.30417
H          3.66767       -3.14334       -3.72635
H          6.01904       -3.51162       -3.11706
H          0.80978       -3.19240       -1.25925
H          1.05771       -4.23031       -2.67209
H          1.32600       -2.48810       -2.81092
