68

C         14.43382        2.65777       -3.60466
C         13.71345        1.35357       -3.95111
C         12.30410        1.26504       -3.35490
C         11.60186       -0.05913       -3.67586
C         10.19265       -0.13015       -3.11062
O          9.61309       -1.39855       -3.45880
C          8.27436       -1.55471       -2.99689
C          7.66568       -2.79207       -3.66171
C          8.64999       -3.97208       -3.76854
C          8.00087       -5.30004       -4.17577
C          7.28532       -5.96447       -2.99673
N          8.25051       -6.07575       -1.88575
C          9.22790       -5.18297       -1.66130
N         10.04924       -5.31821       -0.60089
C          9.86722       -6.26088        0.49962
C         11.10317       -6.17141        1.40076
O         11.35329       -4.80171        1.66340
Si        12.36426       -4.23953        2.91759
C         12.35662       -2.38250        2.68417
C         11.62120       -4.74233        4.56641
C         14.08190       -4.96742        2.70614
N          9.40849       -4.17016       -2.52022
C          6.67764       -7.35617       -3.28300
C          5.43370       -7.22208       -4.18105
O          4.46830       -6.30803       -3.65842
C          7.65682       -8.37784       -3.87305
H         15.43714        2.69036       -4.04988
H         14.54912        2.77273       -2.51668
H         13.87746        3.53194       -3.97334
H         14.31113        0.49596       -3.59837
H         13.64714        1.24681       -5.04663
H         11.69809        2.10572       -3.73376
H         12.36159        1.39901       -2.26066
H         12.19451       -0.89898       -3.27544
H         11.55155       -0.20142       -4.76738
H          9.56432        0.68011       -3.52562
H         10.20057       -0.01217       -2.00900
H          7.67037       -0.66291       -3.24263
H          8.26452       -1.65740       -1.89291
H          7.34730       -2.54825       -4.68617
H          6.76256       -3.08134       -3.10172
H          9.40175       -3.70388       -4.52351
H          8.77503       -5.97536       -4.56766
H          7.28282       -5.10959       -4.98362
H          6.45211       -5.32068       -2.66839
H          8.08546       -6.78543       -1.18023
H         10.64241       -4.52858       -0.34140
H          9.78091       -7.29016        0.11730
H          8.96215       -6.01361        1.08141
H         11.96792       -6.63264        0.89065
H         10.90116       -6.74651        2.32073
H         11.34066       -1.97245        2.76852
H         12.76505       -2.09682        1.70475
H         12.97467       -1.89813        3.45376
H         10.60984       -4.33172        4.69372
H         12.24029       -4.36055        5.39142
H         11.56546       -5.83358        4.68765
H         14.51707       -4.70873        1.73060
H         14.08634       -6.06247        2.80370
H         14.75425       -4.57321        3.48245
H         10.12966       -3.47775       -2.33312
H          6.31886       -7.73509       -2.30621
H          4.99872       -8.22149       -4.34019
H          5.72769       -6.84279       -5.17344
H          3.79566       -6.80408       -3.16936
H          7.91737       -8.13928       -4.91392
H          7.20843       -9.37998       -3.87109
H          8.59209       -8.43453       -3.29908
