58

C          9.01832        1.66775       -0.25198
C          8.27981        0.36575        0.06589
C          8.97062       -0.87063       -0.52235
C          8.28831       -2.19050       -0.17489
O          6.89120       -2.24477       -0.55540
C          6.65602       -2.38953       -1.94223
C          6.84957       -3.82307       -2.39239
C          7.68039       -4.11528       -3.46717
C          7.87280       -5.43998       -3.84222
N          7.24897       -6.40461       -3.14944
N          6.43394       -6.17475       -2.11593
C          6.21169       -4.91266       -1.72174
Si         4.95830       -4.86505       -0.21877
C          5.97849       -4.95182        1.35459
C          3.87030       -3.33693       -0.29446
C          3.89880       -6.40245       -0.42647
C          7.49241       -7.83165       -3.45482
C          8.83008       -8.28409       -2.85947
C          9.15533       -9.74587       -3.25922
N         10.59989       -9.91547       -3.12549
C         11.19882      -10.96638       -3.96059
C         12.69211      -11.04326       -3.69364
O         12.84892      -11.35356       -2.30351
O          9.84845       -7.43493       -3.35202
H          8.49997        2.53388        0.17981
H          9.09160        1.83420       -1.33718
H         10.04169        1.65815        0.15086
H          7.24681        0.42096       -0.31159
H          8.19370        0.24334        1.15863
H         10.00526       -0.94009       -0.14572
H          9.06946       -0.76018       -1.61666
H          8.26643       -2.33300        0.91485
H          8.83386       -3.04725       -0.61129
H          7.29049       -1.71980       -2.54769
H          5.61070       -2.09073       -2.11795
H          8.19294       -3.32789       -4.02090
H          8.52450       -5.76425       -4.65019
H          6.56185       -4.03639        1.50504
H          6.66024       -5.81282        1.34542
H          5.30199       -5.07106        2.21336
H          4.41282       -2.42074       -0.03347
H          3.06089       -3.46705        0.43931
H          3.39316       -3.21223       -1.27621
H          4.48718       -7.32511       -0.35311
H          3.37263       -6.40472       -1.39087
H          3.13783       -6.41925        0.36698
H          7.50988       -7.93835       -4.54747
H          6.64794       -8.38614       -3.03123
H          8.76229       -8.20445       -1.75493
H          8.89919       -9.89431       -4.32099
H          8.55136      -10.45699       -2.66683
H         10.86590      -10.09536       -2.15409
H         11.03184      -10.71723       -5.01964
H         10.74592      -11.95826       -3.77012
H         13.16627      -10.07508       -3.93634
H         13.13640      -11.82441       -4.33399
H         13.79364      -11.39199       -2.09216
H         10.62326       -8.06373       -3.41028
