126

C          0.25112        2.23185        2.26670
C          1.53094        2.28629        1.42896
C          2.78020        2.62608        2.24939
C          4.06525        2.67811        1.41673
C          5.31102        3.02782        2.23658
C          6.59506        3.08035        1.40072
C          7.83750        3.41131        2.23914
C          9.08759        3.46598        1.38607
O         10.23061        3.74255        2.28024
C         11.41117        3.93829        1.71994
O         11.58982        3.92255        0.49583
C         12.50035        4.11950        2.76256
C         13.73254        5.00283        2.45154
O         13.45458        6.40243        2.49765
C         12.80299        6.93320        1.33351
C         12.63015        8.43350        1.53408
C         11.64711        8.75957        2.65221
O         11.46948       10.18872        2.64039
C         10.39263       10.64956        3.36127
O          9.64355        9.90803        3.95981
C         10.30368       12.15590        3.27788
C          9.10677       12.74620        4.02545
C          9.04706       14.27132        3.91529
C         13.62425        6.63743        0.07979
N         13.88960        5.16301       -0.05110
C         14.55287        4.65526        1.19752
C         14.66188        4.81392       -1.30673
C         13.85395        5.00430       -2.58555
C         12.75538        3.95153       -2.78614
S         11.68605        4.29380       -4.20341
C         12.70543        3.74699       -5.59371
S         14.20887        3.05273       -5.38717
N         12.11388        3.96374       -6.78736
C         10.75738        4.51472       -6.92390
C         10.71057        6.04606       -7.02198
C          9.27217        6.57348       -7.01205
C          9.18956        8.10330       -7.01712
C          7.75732        8.63920       -6.92243
C          7.67784       10.16866       -6.88725
C          6.24909       10.70993       -6.76449
C          6.18361       12.23834       -6.70958
C         12.82659        3.66682       -8.04147
C         12.58002        2.25029       -8.57259
C         13.35250        2.00270       -9.87263
C         13.11816        0.61273      -10.47344
C         13.91914        0.36906      -11.75729
C         13.67242       -1.00404      -12.38997
C         14.47589       -1.24099      -13.67443
C         14.23895       -2.62110      -14.29362
H         -0.62366        1.98874        1.64826
H          0.05254        3.19617        2.75765
H          0.32144        1.46841        3.05578
H          1.41327        3.03157        0.62395
H          1.68217        1.31773        0.92271
H          2.89837        1.88289        3.05770
H          2.63150        3.59732        2.75370
H          3.94357        3.41573        0.60385
H          4.21738        1.70378        0.91970
H          5.43522        2.28886        3.04702
H          5.16123        4.00123        2.73483
H          6.47768        3.82967        0.59860
H          6.74039        2.11077        0.89370
H          7.96983        2.65288        3.02678
H          7.70228        4.37889        2.74804
H          9.05114        4.26404        0.63100
H          9.29257        2.51433        0.87432
H         12.86180        3.10132        2.99064
H         12.04268        4.49047        3.68854
H         14.41341        4.84329        3.30130
H         11.80174        6.47382        1.22238
H         12.25301        8.87351        0.59740
H         13.61008        8.89047        1.74000
H         12.02457        8.44243        3.63532
H         10.67412        8.26831        2.49287
H         10.28419       12.43101        2.20975
H         11.25436       12.56583        3.65941
H          9.15723       12.44397        5.08208
H          8.18042       12.30158        3.63154
H          9.94735       14.74290        4.33642
H          8.18032       14.67072        4.45797
H          8.96127       14.59834        2.86822
H         14.59969        7.14470        0.12201
H         13.08656        6.96568       -0.81688
H         12.95200        4.65944       -0.05544
H         15.54289        5.12663        1.26312
H         14.67990        3.57032        1.08802
H         14.97181        3.76478       -1.19651
H         15.56714        5.43802       -1.30187
H         14.56032        4.90851       -3.42461
H         13.43672        6.02000       -2.65141
H         12.04760        3.89683       -1.94583
H         13.20636        2.95887       -2.94193
H         10.14925        4.16735       -6.07438
H         10.31309        4.05776       -7.82076
H         11.23100        6.37530       -7.93583
H         11.26597        6.47461       -6.17284
H          8.75401        6.18665       -6.11652
H          8.71974        6.17029       -7.87841
H          9.67021        8.49482       -7.93028
H          9.78116        8.49853       -6.17219
H          7.27641        8.22925       -6.01639
H          7.16605        8.26008       -7.77402
H          8.14716       10.58119       -7.79772
H          8.28194       10.54492       -6.04203
H          5.77839       10.28742       -5.86025
H          5.64834       10.34474       -7.61441
H          6.75145       12.63192       -5.85298
H          5.14893       12.59471       -6.61331
H          6.60622       12.68958       -7.61960
H         13.89808        3.81795       -7.85399
H         12.49792        4.41556       -8.77876
H         11.50085        2.09699       -8.74187
H         12.88982        1.52488       -7.80475
H         14.43094        2.13992       -9.68161
H         13.07673        2.77044      -10.61724
H         12.04198        0.48125      -10.68271
H         13.37778       -0.15735       -9.72628
H         14.99580        0.48344      -11.54014
H         13.67571        1.15651      -12.49238
H         12.59565       -1.11668      -12.60954
H         13.91384       -1.79477      -11.65776
H         15.55048       -1.11332      -13.45868
H         14.22156       -0.45798      -14.40917
H         14.51257       -3.42508      -13.59369
H         14.83318       -2.76045      -15.20722
H         13.18089       -2.76332      -14.56122
