94

C          0.66810       -0.57919        0.01582
C          2.15975       -0.25426       -0.09102
C          2.75309        0.30045        1.20852
C          4.24425        0.63631        1.10943
C          4.83440        1.18563        2.41182
C          6.32419        1.52791        2.31201
C          6.90871        2.07701        3.61705
C          8.39596        2.43221        3.51293
C          8.95989        3.00978        4.81542
C         10.44322        3.36573        4.68605
N         10.98373        3.98572        5.91091
C         11.54913        3.28522        6.96760
C         11.86367        4.17883        7.95496
N         11.45977        5.41312        7.45992
C         10.92353        5.29496        6.22522
C         10.33804        6.38244        5.39714
C         10.81383        7.79628        5.74819
O         10.11842        8.65245        4.87756
C         10.45008       10.03644        5.04174
C          9.60093       10.81831        4.04836
O          9.94903       12.18094        4.22715
C          9.29068       13.11917        3.45669
C          9.64641       14.45412        3.68978
C          9.03282       15.46964        2.96801
C          8.04512       15.20724        1.99784
C          7.72327       13.86456        1.77579
C          8.32809       12.82171        2.49068
C          7.39705       16.36158        1.21563
C          6.82346       17.46166        2.16731
C          5.59205       17.25648        3.10265
C          4.25770       17.24118        2.32673
C          5.68700       15.98859        3.97227
C          5.56884       18.48514        4.03874
C          8.51586       17.04870        0.38717
C          6.34338       15.85856        0.21241
C         12.49716        3.99919        9.29530
C         11.62538        4.48821       10.46565
H          0.27274       -0.97315       -0.93032
H          0.08147        0.31523        0.27355
H          0.47787       -1.33314        0.79419
H          2.32245        0.47394       -0.90379
H          2.71488       -1.16163       -0.38412
H          2.59605       -0.43051        2.02151
H          2.19425        1.20559        1.50626
H          4.39984        1.37102        0.29989
H          4.80331       -0.26700        0.80806
H          4.68207        0.44982        3.22090
H          4.27331        2.08732        2.71474
H          6.47626        2.26603        1.50513
H          6.88765        0.62816        2.00913
H          6.76545        1.33727        4.42352
H          6.34116        2.97339        3.92271
H          8.54171        3.16091        2.69677
H          8.97006        1.53421        3.22696
H          8.83127        2.28978        5.63989
H          8.39105        3.91155        5.09608
H         10.61328        4.06406        3.85512
H         11.05434        2.47492        4.48861
H         11.69090        2.21205        6.92618
H         11.54945        6.29595        7.95491
H          9.23820        6.35582        5.48256
H         10.56434        6.19425        4.33687
H         11.91140        7.88558        5.61577
H         10.58059        8.04617        6.80694
H         11.52400       10.20343        4.84291
H         10.23092       10.36739        6.07332
H          8.52877       10.64762        4.25290
H          9.81618       10.47859        3.01928
H         10.40494       14.67670        4.44083
H          9.33100       16.49770        3.17791
H          6.97209       13.59839        1.03346
H          8.03271       11.79449        2.27941
H          6.59324       18.33336        1.53046
H          7.65809       17.79120        2.80730
H          4.12101       16.32667        1.73705
H          4.18414       18.09848        1.64103
H          3.41294       17.30421        3.02858
H          5.65646       15.06977        3.37213
H          4.84243       15.95548        4.67706
H          6.61554       15.96680        4.56031
H          5.49991       19.42328        3.46798
H          6.47879       18.53328        4.65520
H          4.70399       18.44281        4.71679
H          9.28415       17.49757        1.03167
H          8.09460       17.84839       -0.23939
H          9.01161       16.32069       -0.27015
H          5.55695       15.25471        0.68157
H          6.80982       15.24972       -0.57572
H          5.85673       16.71230       -0.27833
H         13.46910        4.51948        9.30610
H         12.72274        2.93023        9.41182
H         11.43303        5.56984       10.41585
H         12.13560        4.29657       11.41727
H         10.65746        3.97042       10.48628
