105

C         17.34311       12.07502       17.22595
C         16.88676       12.43392       15.81014
C         17.37182       11.44038       14.74963
C         16.89263       11.77006       13.33322
C         17.39939       10.79172       12.26896
C         16.87944       11.09845       10.86189
C         17.41259       10.15113        9.78278
C         16.86725       10.45882        8.38537
C         17.42430        9.55247        7.28382
C         16.87645        9.88829        5.89406
C         17.47744        9.04766        4.76371
C         16.94846        9.43951        3.38136
C         17.62383        8.71118        2.21537
C         17.12773        9.19461        0.84863
C         17.90417        8.61585       -0.33912
C         17.41242        9.09126       -1.71732
C         17.38497       10.61860       -1.91658
C         18.78336       11.25691       -1.85071
C         18.80668       12.80461       -1.77862
S         20.62249       13.32573       -1.89836
C         20.27495       14.48018       -3.09030
N         19.07284       14.48125       -3.57100
C         18.16261       13.43927       -3.06503
C         16.72774       13.97611       -2.94763
C         16.10813       14.37368       -4.30760
O         15.72492       15.77336       -4.37329
C         16.65049       16.67827       -4.75014
O         17.82868       16.39088       -4.96034
C         16.07228       18.05902       -4.92689
C         15.19835       18.55749       -3.76056
C         15.97903       18.74891       -2.45862
C         18.28431       13.26408       -0.39785
C         18.40922       14.75662       -0.06140
O         18.51085       15.59800       -0.96597
N         18.37944       15.08600        1.26005
C         18.53352       16.49694        1.65679
C         19.85503       16.79226        2.37752
C         21.10770       16.58691        1.51953
C         22.39931       16.91251        2.27282
C         18.21479       14.10611        2.33429
H         16.98446       12.80610       17.96364
H         18.44074       12.04360       17.29451
H         16.96554       11.08635       17.52638
H         17.24515       13.44454       15.55054
H         15.78529       12.48664       15.77986
H         17.03244       10.42536       15.02140
H         18.47551       11.40378       14.76429
H         17.21280       12.79324       13.06786
H         15.78844       11.78552       13.31790
H         17.10713        9.76446       12.54884
H         18.50357       10.80082       12.26191
H         17.14513       12.13676       10.59431
H         15.77579       11.06130       10.86652
H         17.16247        9.10999       10.05192
H         18.51565       10.20256        9.76470
H         17.09238       11.51094        8.13375
H         15.76583       10.38165        8.39954
H         17.19843        8.49891        7.52303
H         18.52571        9.63055        7.27017
H         17.06409       10.95720        5.68370
H         15.77867        9.77064        5.89526
H         17.27557        7.97863        4.94752
H         18.57645        9.15528        4.77675
H         17.08554       10.52902        3.24553
H         15.85885        9.26803        3.34208
H         17.46195        7.62407        2.30666
H         18.71643        8.86077        2.27951
H         17.19187       10.29764        0.83567
H         16.05492        8.95735        0.73925
H         17.83970        7.51661       -0.31533
H         18.97738        8.84347       -0.21620
H         16.39057        8.71472       -1.88193
H         18.03514        8.63401       -2.50338
H         16.71994       11.06323       -1.16054
H         16.92605       10.83298       -2.89520
H         19.36346       10.93657       -2.73038
H         19.32097       10.87018       -0.97140
H         21.02556       15.19337       -3.43495
H         18.68634       15.22732       -4.21621
H         18.16774       12.64678       -3.83669
H         16.71769       14.84067       -2.27131
H         16.10876       13.19263       -2.49237
H         15.16131       13.84789       -4.47098
H         16.77707       14.15264       -5.15279
H         15.46946       18.02662       -5.85018
H         16.91647       18.73660       -5.11022
H         14.36050       17.86210       -3.60929
H         14.75455       19.51423       -4.07147
H         16.42443       17.80784       -2.10135
H         15.32300       19.12676       -1.66347
H         16.79658       19.47291       -2.58805
H         18.79943       12.65418        0.35841
H         17.22078       12.98278       -0.31699
H         17.68277       16.75607        2.30708
H         18.45603       17.09207        0.73887
H         19.92915       16.18761        3.29793
H         19.80870       17.84055        2.71549
H         21.03145       17.21492        0.61680
H         21.14419       15.54387        1.16181
H         22.41054       17.95965        2.60857
H         23.28370       16.75755        1.64040
H         22.51207       16.27894        3.16508
H         17.42510       13.37999        2.10297
H         17.91469       14.63855        3.24409
H         19.14684       13.56256        2.55648
