53

C          7.68050        0.50033        1.98624
C          6.41517        1.08475        1.35457
C          6.18605        0.59962       -0.08070
C          4.89411        1.15042       -0.72936
C          4.90438        2.63533       -0.88470
N          5.75612        3.26289       -1.77702
C          5.65669        4.59077       -1.66512
N          4.74096        4.86812       -0.72262
C          4.24759        3.64535       -0.20871
C          3.21760        3.46640        0.86458
C          1.74056        3.45337        0.39657
C          1.29452        2.26257       -0.47374
C          1.23750        0.94330        0.28940
O          2.13468        0.54284        1.00155
O          0.12016        0.18998        0.13805
C          4.52910        6.28109       -0.21201
C          5.22479        6.41164        1.19319
C          6.58374        5.70205        1.31245
C          5.33350        7.87701        1.64844
C          5.05683        7.28444       -1.27976
O          6.45596        7.27963       -1.54673
C          3.02238        6.58005       -0.12092
H          7.81589        0.86144        3.01402
H          8.57979        0.77636        1.41593
H          7.63671       -0.59728        2.02459
H          6.47410        2.18689        1.36985
H          5.53687        0.81771        1.96503
H          6.11638       -0.49884       -0.09224
H          7.06330        0.84931       -0.70407
H          4.03014        0.86151       -0.11615
H          4.74882        0.68451       -1.71725
H          6.38495        2.78792       -2.41824
H          6.26552        5.31859       -2.18808
H          3.33550        4.23855        1.63526
H          3.43254        2.51368        1.36573
H          1.51800        4.36853       -0.16586
H          1.11280        3.48700        1.29956
H          1.98574        2.11668       -1.32092
H          0.31701        2.50226       -0.91776
H         -0.52228        0.63655       -0.44049
H          4.54335        5.91718        1.90505
H          7.32068        6.07940        0.59195
H          6.50213        4.61525        1.17567
H          6.99086        5.86512        2.31853
H          6.09223        8.43902        1.08267
H          5.64475        7.90751        2.70011
H          4.38333        8.42193        1.57708
H          4.72446        8.28379       -0.96879
H          4.55230        7.06938       -2.23505
H          6.89923        7.91661       -0.96667
H          2.54565        6.07183        0.72190
H          2.50594        6.29924       -1.04803
H          2.87009        7.65575        0.02697
