85

C          2.16138        1.03660       -1.76400
O          1.94212        0.89809       -0.35016
C          2.91642        1.35041        0.51846
C          4.07529        2.01429        0.10535
C          5.01126        2.43220        1.05585
C          4.79772        2.19617        2.41401
C          3.63043        1.54772        2.81889
C          2.67108        1.12271        1.89207
C          1.48449        0.33318        2.38440
C          1.67795       -1.16909        1.99976
N          0.55393       -2.05490        2.22129
C         -0.67784       -1.52610        1.66786
C         -1.02083       -0.11041        2.17070
N          0.14671        0.81917        1.79070
C         -0.29941        2.30683        1.94082
C          0.59483        3.21033        2.78050
O          0.65961        2.69981        4.11050
C         -0.52468        2.88765        0.54644
C         -1.35387       -0.06294        3.66715
C         -2.80285       -0.49317        3.94331
C         -3.13020       -0.56941        5.43876
C         -4.56589       -1.02710        5.71948
C         -4.90346       -1.11132        7.21213
C         -6.32877       -1.60262        7.48818
C         -6.68662       -1.64783        8.97765
C         -8.11114       -2.14286        9.25001
C         -8.49047       -2.13677       10.73462
C         -9.92363       -2.60953       11.00218
C        -10.30836       -2.57166       12.48366
C        -11.75122       -3.03331       12.73235
N        -12.13131       -3.00376       14.13700
C        -11.91531       -4.01945       15.04319
C        -12.30278       -3.57360       16.29422
C        -12.76267       -2.23570       16.14202
C        -12.64077       -1.90986       14.80293
H          3.07628        0.51060       -2.07211
H          2.21994        2.09558       -2.05699
H          1.29424        0.57165       -2.24383
H          4.26297        2.20108       -0.95037
H          5.91592        2.93989        0.72115
H          5.53353        2.51316        3.15204
H          3.44654        1.36519        3.87931
H          1.39106        0.45110        3.46934
H          2.54927       -1.52560        2.56400
H          1.94959       -1.21454        0.93322
H          0.45413       -2.32646        3.19808
H         -1.51196       -2.19865        1.90657
H         -0.58975       -1.51445        0.56646
H         -1.87055        0.28297        1.58909
H          0.30621        0.70343        0.77399
H         -1.25895        2.23414        2.46834
H          0.10904        4.20201        2.76028
H          1.59532        3.31773        2.33343
H          1.14733        3.33096        4.66205
H          0.42197        3.06467        0.02037
H         -1.05662        3.84359        0.62617
H         -1.14854        2.22411       -0.06927
H         -1.18768        0.94335        4.07850
H         -0.66465       -0.71954        4.22226
H         -3.00123       -1.47710        3.48507
H         -3.49165        0.21410        3.44943
H         -2.95904        0.41754        5.90264
H         -2.42408       -1.26137        5.93041
H         -4.72942       -2.01451        5.25270
H         -5.27296       -0.33867        5.22421
H         -4.76397       -0.11793        7.67395
H         -4.18268       -1.78099        7.71354
H         -6.45797       -2.60828        7.05033
H         -7.04804       -0.95066        6.96163
H         -6.56382       -0.63929        9.41082
H         -5.96585       -2.29354        9.50959
H         -8.22658       -3.16430        8.84644
H         -8.82711       -1.51544        8.69015
H         -8.36441       -1.11661       11.13782
H         -7.78479       -2.77220       11.29770
H        -10.04747       -3.63638       10.61490
H        -10.62586       -1.98286       10.42412
H        -10.19103       -1.54919       12.87831
H         -9.62595       -3.20897       13.06923
H        -11.89213       -4.06102       12.36350
H        -12.45662       -2.39687       12.17615
H        -11.51411       -4.97464       14.71930
H        -12.27269       -4.15276       17.21164
H        -13.15449       -1.58801       16.91981
H        -12.88146       -0.99759       14.26624
