116

C         17.13291       12.17921        9.26534
C         16.71240       10.97316        8.42247
C         17.13896        9.63304        9.02946
C         16.72741        8.41685        8.19445
C         17.15157        7.08068        8.81103
C         16.75312        5.85760        7.97917
C         17.16897        4.52930        8.61796
C         16.79524        3.29372        7.79308
C         17.18719        1.97787        8.47183
C         16.85020        0.72570        7.65639
C         17.20729       -0.57475        8.38264
C         16.89605       -1.84368        7.58377
C         17.22491       -3.12932        8.34863
C         16.91344       -4.41012        7.56854
C         17.22823       -5.68295        8.36022
C         16.89213       -6.96659        7.58977
C         17.21412       -8.22919        8.38494
O         18.64234       -8.31778        8.50380
C         19.04322       -9.28772        9.45383
C         18.62847      -10.68051        8.99980
N         17.14504      -10.67136        8.72570
C         16.63531       -9.54206        7.77968
C         15.09569       -9.62399        7.83584
C         14.39346       -9.31253        9.16638
C         12.89307       -9.62682        9.09459
C         12.13936       -9.36010       10.40027
C         10.65690       -9.73657       10.31603
C          9.88457       -9.50292       11.61745
C          8.41413       -9.92145       11.52810
C          7.63347       -9.71800       12.82932
C          6.16927      -10.15834       12.73641
C          5.39762       -9.97438       14.04440
C         17.16886       -9.82955        6.36835
C         16.73286      -11.15935        5.73987
O         17.59636      -11.41756        4.66376
C         17.24679      -12.61155        3.93814
C         18.22136      -12.80468        2.78914
C         19.66943      -13.05543        3.22295
C         20.61770      -13.28599        2.04234
C         22.06668      -13.52200        2.47220
H         16.81493       13.12507        8.80551
H         18.22598       12.21830        9.38538
H         16.69249       12.13367       10.27260
H         17.13963       11.06388        7.40944
H         15.61722       10.97855        8.29027
H         16.71017        9.54136       10.04325
H         18.23515        9.62837        9.16472
H         17.16070        8.50604        7.18259
H         15.63185        8.42326        8.05576
H         16.71267        6.99157        9.82059
H         18.24616        7.07880        8.95739
H         17.20263        5.93746        6.97371
H         15.65992        5.86142        7.82326
H         16.70829        4.44958        9.61859
H         18.26001        4.53377        8.78865
H         17.27836        3.35491        6.80210
H         15.70781        3.29587        7.60109
H         16.68619        1.91568        9.45409
H         18.27036        1.98834        8.68669
H         17.37915        0.76446        6.68807
H         15.77285        0.72439        7.41412
H         16.66604       -0.61069        9.34458
H         18.28079       -0.56368        8.64115
H         17.45789       -1.82736        6.63364
H         15.82760       -1.84823        7.30511
H         16.66382       -3.13810        9.29972
H         18.29308       -3.12457        8.62749
H         17.48636       -4.41417        6.62506
H         15.84786       -4.41087        7.27840
H         16.66253       -5.67121        9.30870
H         18.29457       -5.69277        8.63392
H         17.45309       -6.99170        6.64244
H         15.82227       -6.96556        7.32693
H         16.79416       -8.12211        9.40742
H         18.61412       -9.06127       10.45108
H         20.13697       -9.23829        9.53523
H         18.82437      -11.44539        9.76357
H         19.13080      -10.96403        8.06780
H         16.62815      -10.57039        9.61238
H         16.85993      -11.57091        8.31021
H         14.79502      -10.63471        7.50699
H         14.71144       -8.94767        7.05808
H         14.53494       -8.25602        9.44161
H         14.82171       -9.90093       10.00352
H         12.75995      -10.68442        8.80662
H         12.44273       -9.03277        8.28119
H         12.23634       -8.29491       10.67230
H         12.61277       -9.92946       11.21994
H         10.57053      -10.79959       10.02978
H         10.18142       -9.16413        9.50076
H          9.94773       -8.43657       11.89597
H         10.37277      -10.06037       12.43622
H          8.35787      -10.98454       11.23439
H          7.92336       -9.35732       10.71570
H          7.67690       -8.65394       13.12136
H          8.12940      -10.27563       13.64352
H          6.13014      -11.21759       12.43075
H          5.67195       -9.59256       11.93064
H          5.85032      -10.55880       14.85918
H          4.35270      -10.29783       13.94410
H          5.39082       -8.92002       14.35825
H         18.26680       -9.78357        6.35770
H         16.83132       -9.00881        5.72124
H         15.67872      -11.11918        5.40273
H         16.78342      -12.00989        6.46908
H         16.21005      -12.51760        3.56398
H         17.28061      -13.47704        4.63079
H         18.17071      -11.92274        2.13022
H         17.85755      -13.65768        2.19277
H         19.70182      -13.93342        3.89319
H         20.02764      -12.19847        3.81656
H         20.57036      -12.41623        1.36610
H         20.26124      -14.14722        1.45313
H         22.46294      -12.65912        3.02814
H         22.72046      -13.68588        1.60533
H         22.15186      -14.40452        3.12388
