36

C          1.89139       -1.59678        2.02563
C          3.18153       -0.81984        1.73901
C          4.15586       -0.92719        2.90218
O          5.42877       -0.24758        2.59246
C          5.52844        1.03354        2.93051
O          4.69569        1.71709        3.49358
C          6.90260        1.58685        2.48451
C          7.28235        2.73253        3.34013
N          8.00265        2.65386        4.47223
N          8.06888        3.86248        5.00165
N          7.40926        4.68855        4.22680
N          6.89605        4.01681        3.15921
C          6.15969        4.66277        2.09899
C          6.88239        5.29932        1.08468
C          6.16945        5.93373        0.06738
C          4.77049        5.92464        0.08043
C          4.07153        5.27798        1.10425
C          4.76360        4.63482        2.13219
C          7.23098        6.11353        4.48781
H          1.19610       -1.51249        1.18118
H          1.37844       -1.21303        2.91893
H          2.09102       -2.66592        2.18467
H          2.94873        0.24134        1.55881
H          3.66510       -1.20722        0.82938
H          4.46057       -1.96453        3.08824
H          3.75055       -0.48904        3.82364
H          6.81864        1.88999        1.43010
H          7.67013        0.80785        2.56134
H          7.97312        5.28936        1.08979
H          6.70871        6.43174       -0.73790
H          4.22151        6.42411       -0.71787
H          2.98189        5.26961        1.10586
H          4.24805        4.10088        2.92953
H          7.70270        6.29960        5.45707
H          6.15992        6.34511        4.52705
H          7.71929        6.70144        3.70197
