125

C          6.30141       -4.70587        0.12399
C          7.04310       -4.01423       -1.02276
C          6.59114       -2.56714       -1.25203
C          7.31619       -1.86834       -2.40655
C          6.86650       -0.41936       -2.62136
C          7.56557        0.27147       -3.79668
C          7.11712        1.72260       -3.99762
C          7.81358        2.37724       -5.19796
N          7.42282        3.77879       -5.41673
C          6.40086        4.14712       -6.21895
S          5.93108        5.73098       -6.49402
S          5.58313        2.73801       -6.99215
C          4.25911        3.54321       -7.92240
C          3.04517        3.89160       -7.05526
C          2.03436        4.72474       -7.85309
C          0.81542        5.24965       -7.05608
C          1.29773        6.28643       -6.01548
C          0.27089        7.12180       -5.24078
C          0.91649        7.99731       -4.15941
P         -0.27071        9.09661       -3.32681
O          0.27084        9.94622       -2.24392
O         -0.94895        9.91529       -4.54943
C         -1.01156       11.37654       -4.51706
C         -2.30774       11.85891       -3.89389
O         -1.39457        8.01536       -2.92261
C         -2.56078        8.43111       -2.15237
C         -3.19026        7.19528       -1.54400
C         -0.02786        4.07881       -6.50529
C         -1.52128        4.33717       -6.24830
C         -2.20942        4.90294       -7.50349
C         -1.51721        6.20523       -7.90706
N         -0.03723        5.96623       -8.14389
C         -3.78492        5.03865       -7.48696
C         -4.30096        6.37606       -6.83840
C         -5.82874        6.54649       -6.94386
C         -3.88785        6.59717       -5.37247
C         -4.25970        4.95322       -8.96758
O         -3.83082        6.03987       -9.80318
C         -4.38779        3.79489       -6.80504
C          8.22447        4.78225       -4.69761
C          9.51994        5.14806       -5.43135
C         10.35870        6.15871       -4.64225
C         11.75347        6.38219       -5.23652
C         12.58254        7.41891       -4.47146
C         14.02155        7.55276       -4.97917
C         14.84313        8.60570       -4.22699
C         16.29173        8.70660       -4.71080
H          6.65181       -5.73728        0.26735
H          5.21845       -4.74721       -0.06706
H          6.44748       -4.17080        1.07445
H          6.90374       -4.59029       -1.95348
H          8.12754       -4.02664       -0.82132
H          6.74048       -1.98904       -0.32289
H          5.50312       -2.55215       -1.44335
H          7.15885       -2.44225       -3.33702
H          8.40445       -1.88862       -2.22154
H          7.04631        0.15897       -1.69828
H          5.77460       -0.39653       -2.78364
H          7.37555       -0.30117       -4.72136
H          8.65825        0.24157       -3.64151
H          7.32879        2.30853       -3.08831
H          6.02686        1.76060       -4.14927
H          7.62343        1.80378       -6.11771
H          8.90464        2.36684       -5.05566
H          4.00745        2.82573       -8.71802
H          4.68865        4.45082       -8.37317
H          3.40895        4.47086       -6.19561
H          2.58458        2.96866       -6.67357
H          1.66143        4.11561       -8.69871
H          2.57268        5.58652       -8.28657
H          2.01216        6.96263       -6.51823
H          1.90756        5.71964       -5.29626
H         -0.47148        6.47660       -4.75549
H         -0.28306        7.78866       -5.91885
H          1.69499        8.65518       -4.57579
H          1.39346        7.38826       -3.37681
H         -0.93147       11.68197       -5.56908
H         -0.14072       11.75641       -3.96539
H         -3.17961       11.42687       -4.40414
H         -2.37211       12.95331       -3.97443
H         -2.35157       11.59863       -2.82805
H         -3.25482        8.94611       -2.83547
H         -2.23823        9.14140       -1.37679
H         -3.49165        6.48009       -2.32107
H         -4.08593        7.47755       -0.97371
H         -2.49156        6.69632       -0.85999
H          0.45659        3.73185       -5.58231
H          0.05257        3.24322       -7.22155
H         -1.66708        4.99944       -5.38699
H         -1.97309        3.37615       -5.97387
H         -2.00737        4.17225       -8.31375
H         -1.59746        6.97225       -7.13154
H         -1.92014        6.60060       -8.84747
H          0.42164        6.86192       -8.35733
H          0.04962        5.39602       -8.99739
H         -3.86007        7.19852       -7.42807
H         -6.36981        5.78773       -6.36094
H         -6.20477        6.50101       -7.97469
H         -6.11712        7.52713       -6.54257
H         -4.22910        5.77925       -4.72175
H         -4.34982        7.51993       -4.99620
H         -2.80802        6.71446       -5.22466
H         -5.35346        4.85193       -9.00158
H         -3.84181        4.03632       -9.41375
H         -4.55990        6.67042       -9.89605
H         -4.18943        3.76446       -5.72723
H         -3.98714        2.86935       -7.24493
H         -5.47684        3.76629       -6.93738
H          8.45374        4.36199       -3.70559
H          7.59556        5.67054       -4.55768
H          9.26538        5.55385       -6.42285
H         10.11533        4.23578       -5.60610
H         10.46636        5.81212       -3.59905
H          9.81830        7.11903       -4.58756
H         11.66091        6.69133       -6.29215
H         12.29570        5.42012       -5.25067
H         12.60071        7.15133       -3.40010
H         12.08016        8.40038       -4.52702
H         14.01073        7.80105       -6.05536
H         14.52688        6.57385       -4.90095
H         14.83020        8.37302       -3.14862
H         14.35034        9.58737       -4.32866
H         16.82760        7.75629       -4.56837
H         16.84537        9.48333       -4.16554
H         16.34031        8.95404       -5.78175
