102

C          0.53829       -0.09162        0.22831
C          2.06856       -0.08179        0.18962
C          2.63984        0.19332       -1.20548
C          4.17037        0.21025       -1.25533
C          4.73639        0.48657       -2.65134
C          6.26664        0.50736       -2.70310
C          6.83097        0.78789       -4.09877
C          8.36111        0.81176       -4.14904
C          8.92887        1.08613       -5.54483
C         10.45947        1.10762       -5.58541
C         11.04024        1.38480       -6.97488
C         12.57177        1.40465       -7.00253
C         13.15500        1.67823       -8.39188
C         14.68667        1.69264       -8.42661
C         15.25204        1.96896       -9.82362
C         16.78355        1.97276       -9.88004
C         17.31775        2.26749      -11.28496
C         18.86528        2.26614      -11.34520
C         19.38652        2.55242      -12.70631
N         19.64248        1.66741      -13.68739
C         20.03633        2.30371      -14.86245
C         20.03060        3.65020      -14.58030
N         19.61918        3.75964      -13.25405
C         20.32124        4.83185      -15.44070
C         19.06141        5.40060      -16.12839
C         19.37367        6.59231      -17.03663
C         18.14069        7.13341      -17.76663
C         18.45240        8.32225      -18.68092
C         17.22990        8.84663      -19.43975
C         17.54345       10.03522      -20.35527
C         16.32092       10.54960      -21.11851
C         20.43837        1.56501      -16.09337
C         21.91229        1.11197      -16.06619
C         22.34512        0.42326      -17.36348
C         23.86043        0.19290      -17.43075
N         24.57969        1.47547      -17.41775
H          0.16051       -0.29367        1.24012
H          0.12697       -0.86312       -0.43986
H          0.12473        0.87600       -0.09340
H          2.45316       -1.04974        0.55385
H          2.45082        0.67690        0.89367
H          2.25263        1.16073       -1.57219
H          2.25998       -0.56751       -1.91048
H          4.55849       -0.75700       -0.88956
H          4.55035        0.97129       -0.55082
H          4.34681        1.45308       -3.01747
H          4.35798       -0.27514       -3.35592
H          6.65730       -0.45972       -2.33969
H          6.64534        1.26765       -1.99710
H          6.43895        1.75408       -4.46304
H          6.45432        0.02634       -4.80446
H          8.75274       -0.15300       -3.78059
H          8.73748        1.57593       -3.44613
H          8.53925        2.05122       -5.91449
H          8.55426        0.32177       -6.24853
H         10.84610        0.14128       -5.21604
H         10.83109        1.86931       -4.87735
H         10.65590        2.35158       -7.34561
H         10.67183        0.62301       -7.68452
H         12.95514        0.43858       -6.62938
H         12.93965        2.16784       -6.29433
H         12.77354        2.64586       -8.76301
H         12.78254        0.91677       -9.09963
H         15.07070        0.72452       -8.06026
H         15.06323        2.45389       -7.72122
H         14.87236        2.94123      -10.18347
H         14.86438        1.21328      -10.52900
H         17.16884        0.99688       -9.53734
H         17.17855        2.72204       -9.17234
H         16.94523        3.24628      -11.62936
H         16.92964        1.52176      -11.99803
H         19.25575        1.29185      -11.01355
H         19.27055        3.01391      -10.64602
H         19.55497        0.66133      -13.57549
H         19.51329        4.63638      -12.75118
H         21.05952        4.53605      -16.20055
H         20.81057        5.61449      -14.83816
H         18.32502        5.69593      -15.36143
H         18.58448        4.59705      -16.71376
H         20.13555        6.29346      -17.77756
H         19.83331        7.39885      -16.43929
H         17.37584        7.42957      -17.02747
H         17.68654        6.32292      -18.36333
H         19.23305        8.02966      -19.40494
H         18.88939        9.13953      -18.08076
H         16.44691        9.13856      -18.71767
H         16.79477        8.02858      -20.04087
H         18.33030        9.74254      -21.07102
H         17.97413       10.85245      -19.75221
H         15.89156        9.76607      -21.76045
H         16.57879       11.40081      -21.76298
H         15.53007       10.88253      -20.43006
H         20.27106        2.22375      -16.95850
H         19.76819        0.70184      -16.24092
H         22.07515        0.43285      -15.21160
H         22.56031        1.98562      -15.89896
H         22.04319        1.04497      -18.22518
H         21.82402       -0.54027      -17.48410
H         24.08595       -0.43695      -18.31109
H         24.18237       -0.38018      -16.54685
H         24.55241        1.90934      -18.34167
H         25.56524        1.33388      -17.19883
