68

C          1.04174       -0.90697        0.83464
C          2.54131       -0.70985        0.59877
C          3.03285       -1.30815       -0.72410
C          4.52708       -1.08659       -0.97978
C          5.02268       -1.68607       -2.29990
C          6.50542       -1.41448       -2.57334
C          7.01023       -2.01860       -3.88797
C          8.48402       -1.70992       -4.16798
C          8.99737       -2.30672       -5.48358
C         10.46736       -1.95821       -5.75091
C         11.00294       -2.58904       -7.02282
O         12.39747       -2.20582       -7.16297
C         13.09154       -2.86797       -8.21173
C         14.59951       -2.77465       -7.96681
C         14.96269       -3.46801       -6.64207
O         16.35574       -3.45382       -6.37679
C         16.82235       -2.11706       -6.27939
C         16.61462       -1.37090       -7.59215
N         15.15064       -1.34565       -7.94823
C         14.77807       -0.50170       -9.18111
C         13.45807        0.26755       -8.79463
O         13.32215        0.38043       -7.37835
C         15.86994        0.46834       -9.61598
C         18.31885       -2.07827       -5.87670
O         18.97276       -1.10552       -6.20198
C         18.84613       -3.22842       -5.07111
H          0.72197       -0.46581        1.78863
H          0.77750       -1.97491        0.85800
H          0.44701       -0.43841        0.03623
H          3.10869       -1.15777        1.43225
H          2.77857        0.36750        0.61825
H          2.45255       -0.87378       -1.55751
H          2.81421       -2.39070       -0.73819
H          5.10893       -1.51383       -0.14402
H          4.73937       -0.00278       -0.97058
H          4.41968       -1.28351       -3.13279
H          4.84356       -2.77559       -2.29732
H          7.10987       -1.80580       -1.73613
H          6.67794       -0.32377       -2.58503
H          6.39379       -1.64295       -4.72335
H          6.86122       -3.11240       -3.87007
H          9.10196       -2.08598       -3.33384
H          8.63046       -0.61571       -4.18325
H          8.37338       -1.94679       -6.31926
H          8.87578       -3.40333       -5.45997
H         11.08959       -2.29262       -4.90487
H         10.57811       -0.86196       -5.81230
H         10.44198       -2.25501       -7.91433
H         10.94908       -3.69116       -6.97689
H         12.80527       -2.47254       -9.20322
H         12.84175       -3.94485       -8.21956
H         15.12003       -3.27458       -8.79857
H         14.66413       -4.52255       -6.70904
H         14.40274       -3.00110       -5.81075
H         16.27712       -1.58985       -5.46317
H         17.15924       -1.87126       -8.40392
H         16.97686       -0.34412       -7.49441
H         14.63955       -0.80778       -7.19714
H         14.58200       -1.21605       -9.99159
H         12.57784       -0.22244       -9.23281
H         13.51952        1.28384       -9.20383
H         12.72487       -0.34930       -7.09603
H         16.08428        1.22734       -8.85098
H         15.49729        0.99897      -10.50236
H         16.80404       -0.02619       -9.90724
H         18.22190       -3.39398       -4.18000
H         19.88144       -3.02680       -4.78026
H         18.79042       -4.15792       -5.65738
