107

C          9.56474      -15.56343       17.74992
C         10.04687      -14.30667       17.02084
C         10.76053      -14.60663       15.69778
C         11.26361      -13.35578       14.97017
C         11.95488      -13.65710       13.63656
C         12.50844      -12.41406       12.93199
C         13.16594      -12.71952       11.58250
C         13.78981      -11.49661       10.90244
C         14.41502      -11.81228        9.53990
C         15.09831      -10.61451        8.87201
C         15.69409      -10.95023        7.50127
C         16.42844       -9.78634        6.82631
C         17.02137      -10.17531        5.46877
C         17.74241       -9.03535        4.73707
C         18.51236       -9.48964        3.48551
C         17.61185      -10.10249        2.40499
C         18.33225      -10.66200        1.16847
C         19.37678      -11.75302        1.43295
S         18.78806      -13.03487        2.60678
C         17.36529      -13.79297        1.74289
C         16.78332      -15.00473        2.49510
C         16.49121      -14.72960        3.98834
C         15.46270      -13.63454        4.28986
C         15.54800      -15.49199        1.71894
C         20.07376      -14.31828        2.45484
C         21.41720      -13.83795        2.99904
C         22.54968      -14.83080        2.69443
S         22.73418      -15.30556        0.94807
C         23.61220      -13.88755        0.26239
S         24.00703      -12.52983        1.13023
N         23.90899      -14.07375       -1.05507
C         23.67724      -15.32374       -1.74566
C         22.68332      -15.38877       -2.72916
C         22.48190      -16.57982       -3.42730
C         23.26952      -17.70014       -3.14557
C         24.26759      -17.62654       -2.16977
C         24.48102      -16.43715       -1.47176
C         24.52257      -13.02045       -1.83815
C         25.86143      -13.14414       -2.21442
C         26.44487      -12.15707       -3.01173
C         25.69202      -11.05791       -3.43122
C         24.35031      -10.94468       -3.05329
C         23.76026      -11.92690       -2.25781
H          9.05431      -15.31429       18.69046
H         10.40508      -16.23023       17.99507
H          8.85876      -16.13834       17.13176
H         10.72608      -13.73674       17.67765
H          9.18884      -13.64089       16.82613
H         10.07644      -15.16598       15.03480
H         11.61218      -15.28364       15.88946
H         11.96215      -12.80863       15.62773
H         10.41662      -12.66930       14.79432
H         11.24386      -14.17184       12.96616
H         12.77859      -14.37301       13.80683
H         13.24191      -11.91864       13.59219
H         11.69473      -11.68244       12.78452
H         12.41738      -13.17128       10.90751
H         13.94478      -13.48984       11.72447
H         14.55837      -11.06325       11.56608
H         13.02219      -10.71272       10.77904
H         13.63453      -12.20942        8.86639
H         15.15162      -12.62697        9.65948
H         15.89455      -10.23214        9.53394
H         14.37351       -9.78914        8.76353
H         14.88676      -11.30287        6.83434
H         16.39053      -11.80194        7.60906
H         17.23224       -9.42152        7.48858
H         15.73465       -8.93817        6.69550
H         16.20544      -10.56852        4.83939
H         17.72553      -11.01657        5.61214
H         18.45428       -8.55444        5.42667
H         17.01473       -8.25357        4.46057
H         19.28148      -10.21626        3.80370
H         19.06156       -8.63586        3.05632
H         16.89358       -9.34337        2.05851
H         16.99181      -10.89754        2.85298
H         18.87435       -9.85467        0.64961
H         17.59006      -11.03562        0.44704
H         20.26908      -11.35052        1.93139
H         19.69517      -12.26589        0.51446
H         17.69420      -14.05540        0.72711
H         16.63081      -12.97767        1.67482
H         17.53022      -15.81513        2.45311
H         17.43579      -14.48911        4.50697
H         16.15349      -15.67816        4.43257
H         15.75488      -12.65501        3.88423
H         15.35746      -13.50235        5.37406
H         14.46934      -13.88005        3.89117
H         14.76334      -14.72420        1.67095
H         15.12156      -16.37713        2.20905
H         15.80545      -15.77400        0.68885
H         20.14892      -14.60004        1.39294
H         19.67884      -15.17177        3.02479
H         21.35949      -13.68899        4.08848
H         21.71203      -12.87938        2.54868
H         22.40374      -15.79120        3.21093
H         23.50340      -14.39127        3.01933
H         22.08441      -14.50438       -2.94807
H         21.71152      -16.63161       -4.19724
H         23.11118      -18.62919       -3.69389
H         24.89198      -18.49475       -1.95810
H         25.26330      -16.36536       -0.71596
H         26.44205      -14.00407       -1.88072
H         27.49136      -12.24970       -3.30262
H         26.14955      -10.28913       -4.05429
H         23.76084      -10.08827       -3.38209
H         22.71785      -11.84545       -1.94917
