38

C          2.67466        2.49948       -0.03646
C          3.20184        1.41281        0.01402
C          3.85098        0.11306        0.10366
C          4.54046       -0.09630        1.46793
C          5.20520       -1.47423        1.56414
N          5.89351       -1.71151        2.84802
C          5.19830       -1.94233        3.98666
N          5.78249       -1.77128        5.18025
C          5.22630       -2.22818        6.44951
C          5.39313       -3.74984        6.67592
C          6.61241       -4.16751        7.47215
Br         8.28745       -3.71033        6.51908
Br         3.82506       -4.40463        7.69528
N          3.91930       -2.36172        3.92039
C          7.36847       -1.65231        2.88615
C          7.94719       -0.30689        3.26728
C          9.16525       -0.24064        4.09128
O          7.86728        0.00885        4.68079
H          2.20454        3.45910       -0.09541
H          4.58954        0.01604       -0.71062
H          3.10272       -0.68093       -0.06616
H          3.79811        0.02821        2.27028
H          5.29598        0.68850        1.61851
H          5.96874       -1.58593        0.78306
H          4.47868       -2.28130        1.36659
H          6.66688       -1.23833        5.19970
H          4.16610       -1.94945        6.53132
H          5.74216       -1.66954        7.24101
H          5.34244       -4.29046        5.72318
H          6.65461       -5.25024        7.61418
H          6.67477       -3.65552        8.43841
H          3.50024       -2.63255        3.04206
H          3.34451       -2.41844        4.75112
H          7.72514       -1.93354        1.88561
H          7.72656       -2.41918        3.58913
H          7.70822        0.53981        2.61565
H          9.80665        0.64075        4.02820
H          9.64782       -1.16686        4.41525
