56

C          8.17611       -4.44355        1.16275
C          7.80349       -3.49059        2.30136
C          7.29545       -2.13393        1.80211
C          6.90312       -1.16106        2.91998
C          6.39972        0.17776        2.36990
C          5.88707        1.16491        3.40634
O          6.91248        1.56620        4.39432
C          7.75572        2.53008        4.02164
O          7.81991        3.05194        2.92417
C          8.63178        2.95987        5.20382
P         10.40752        3.06408        4.79722
C         10.81288        3.50347        3.07228
C         10.25482        4.91328        2.98977
O          9.91979        5.39307        4.10275
N         10.13913        5.55427        1.82429
C         10.53047        4.96680        0.53273
C         11.95457        5.32708        0.11099
C          9.53557        6.90311        1.81806
C          8.02009        6.85432        1.62462
C         11.34932        3.88550        6.13568
C         12.68801        4.39168        5.63533
O         13.50893        3.40405        4.97656
C         13.95636        3.94717        6.23590
H          8.54076       -5.40565        1.54665
H          8.96674       -4.01864        0.52640
H          7.31025       -4.65194        0.51719
H          8.67818       -3.33536        2.95594
H          7.03094       -3.95691        2.93553
H          6.42502       -2.29399        1.14193
H          8.06949       -1.66749        1.16655
H          7.76786       -0.99499        3.58517
H          6.12034       -1.61863        3.54919
H          5.54920       -0.00311        1.69000
H          7.17445        0.65919        1.75305
H          5.10604        0.72459        4.03831
H          5.51060        2.08154        2.93429
H          8.52348        2.27588        6.05610
H          8.31854        3.97115        5.49840
H         10.83496        1.71245        4.86780
H         10.34488        2.77121        2.40079
H         11.90580        3.44556        2.94928
H          9.80490        5.32311       -0.21174
H         10.40034        3.87783        0.58305
H         12.09007        6.41417        0.03740
H         12.17352        4.89465       -0.87414
H         12.69625        4.94046        0.82371
H         10.02260        7.47203        1.01410
H          9.79093        7.38163        2.77075
H          7.74629        6.38034        0.67234
H          7.61346        7.87385        1.62093
H          7.54213        6.29396        2.43794
H         11.47217        3.13082        6.92727
H         10.73431        4.71359        6.50963
H         12.65553        5.36272        5.13150
H         14.83361        4.59595        6.17145
H         13.93871        3.24685        7.07597
