81

C          0.61962       -0.02360       -0.37262
C          2.14063        0.01259       -0.21088
C          2.71755       -1.29296        0.34453
C          4.23975       -1.27518        0.50944
C          4.80793       -2.58343        1.06696
C          6.33025       -2.57471        1.23257
C          6.89022       -3.88400        1.79632
C          8.41194       -3.87908        1.96642
C          8.96964       -5.18268        2.54562
C         10.49037       -5.16996        2.72380
C         11.05368       -6.45535        3.33715
C         12.57219       -6.42117        3.53078
C         13.14531       -7.67330        4.20029
C         14.65976       -7.60541        4.42036
C         15.22366       -8.81228        5.17786
C         16.74836       -8.79505        5.37896
C         17.31018       -7.56207        6.10773
C         16.74694       -7.37643        7.51929
C         17.29622       -6.16904        8.30215
C         16.81815       -6.12978        9.76082
C         15.29665       -5.99235        9.79140
N         14.84649       -5.06166        8.74350
C         15.64076       -4.45714        7.83225
N         15.14926       -3.44428        7.08959
N         16.91876       -4.86760        7.67964
C         17.98648       -3.88307        7.31101
C         18.83198       -3.49750        8.53110
O         17.95824       -2.99117        9.53833
C         18.86078       -4.36833        6.15618
Br        12.97961       -4.86813        8.63789
H          0.23253        0.92439       -0.77104
H          0.12164       -0.20778        0.59107
H          0.31197       -0.82462       -1.06115
H          2.42215        0.84561        0.45541
H          2.61101        0.23139       -1.18440
H          2.43286       -2.12724       -0.32075
H          2.24741       -1.51131        1.31982
H          4.52516       -0.44050        1.17401
H          4.70987       -1.05940       -0.46618
H          4.51938       -3.41734        0.40326
H          4.33714       -2.79760        2.04271
H          6.62050       -1.73908        1.89399
H          6.80255       -2.36590        0.25654
H          6.60045       -4.71909        1.13488
H          6.41549       -4.09245        2.77140
H          8.70183       -3.03723        2.62047
H          8.88777       -3.68055        0.99003
H          8.68594       -6.02494        1.89108
H          8.48987       -5.38262        3.52008
H         10.77234       -4.31116        3.36006
H         10.97094       -4.99065        1.74613
H         10.78605       -7.31490        2.69907
H         10.56545       -6.63913        4.31074
H         12.83665       -5.53512        4.13849
H         13.06204       -6.27143        2.55288
H         12.90363       -8.56115        3.59186
H         12.64260       -7.82883        5.17172
H         14.89080       -6.67347        4.96895
H         15.16966       -7.51290        3.44544
H         14.96211       -9.73232        4.63148
H         14.71183       -8.90043        6.15198
H         17.23984       -8.86074        4.39526
H         17.04671       -9.70356        5.92741
H         17.10774       -6.66142        5.50803
H         18.40712       -7.65572        6.16330
H         16.97282       -8.27292        8.12082
H         15.64847       -7.31399        7.47070
H         18.39355       -6.20348        8.28103
H         17.28302       -5.27743       10.27200
H         17.09487       -7.04859       10.29492
H         14.95200       -5.60800       10.76173
H         14.80045       -6.95757        9.61293
H         14.20711       -3.11246        7.26392
H         15.55784       -3.23697        6.18771
H         17.46170       -2.96751        7.01065
H         19.55346       -2.73321        8.19712
H         19.41449       -4.36333        8.89809
H         18.48410       -2.52244       10.20446
H         19.42939       -5.27067        6.41683
H         19.58290       -3.58437        5.89351
H         18.26147       -4.58975        5.26512
