64

C          0.21009        5.72435        2.62689
C          1.71360        5.82208        2.36018
C          2.44644        4.48811        2.54741
C          3.95252        4.58984        2.27785
C          4.67199        3.26575        2.46512
O          6.07251        3.46528        2.19420
C          6.86762        2.31826        2.39909
C          8.31879        2.72971        2.19617
S          8.63059        4.34070        3.01854
C          8.10034        4.10179        4.77851
C          8.92498        3.04728        5.54775
O          8.25810        2.74316        6.76748
C          8.06299        5.47593        5.46476
C          6.97303        6.42038        4.95434
C         10.45754        4.36403        3.11130
C         11.08400        4.61982        1.73642
C         12.62441        4.71587        1.80978
C         13.31731        3.56761        2.56515
C         12.96039        2.16225        2.05215
C         13.16589        1.09218        3.12417
O         12.47159       -0.14191        2.79055
C         11.14501       -0.17046        3.04032
O         10.52080        0.77602        3.51856
C         10.56761       -1.47836        2.65741
C          9.27019       -1.75029        2.83862
H         -0.28475        6.69407        2.48295
H          0.00535        5.39754        3.65717
H         -0.27072        5.00375        1.94907
H          2.16018        6.57729        3.02887
H          1.88482        6.18751        1.33386
H          2.00156        3.73219        1.87730
H          2.27632        4.12108        3.57475
H          4.40475        5.33835        2.94982
H          4.12797        4.94443        1.24962
H          4.27400        2.49435        1.78001
H          4.55206        2.88890        3.50029
H          6.62834        1.51048        1.68037
H          6.71479        1.90012        3.41484
H          8.51931        2.94500        1.13799
H          9.02908        1.97958        2.57331
H          7.06879        3.73717        4.64966
H          9.90415        3.46918        5.82178
H          9.10894        2.14476        4.94625
H          7.74622        1.92776        6.65767
H          9.05598        5.95306        5.40886
H          7.90055        5.25749        6.53148
H          7.09148        6.66554        3.88960
H          6.99193        7.36400        5.51349
H          5.97555        5.97724        5.08537
H         10.78141        3.41103        3.54780
H         10.68651        5.18112        3.81220
H         10.68583        5.55243        1.30979
H         10.79933        3.81367        1.04422
H         12.90368        5.66818        2.28659
H         12.99979        4.77072        0.77659
H         13.06211        3.63528        3.63670
H         14.40490        3.72431        2.52009
H         13.53832        1.91605        1.14972
H         11.90163        2.12796        1.75853
H         12.79489        1.44261        4.09817
H         14.21593        0.79388        3.22587
H         11.25743       -2.20542        2.22788
H          8.60238       -1.00989        3.28297
H          8.84562       -2.71407        2.56114
