77

C         11.73376       -1.74888        6.16797
C         10.99536       -0.40910        6.22046
C         10.30945       -0.04129        4.90019
C          9.60398        1.31804        4.93074
C          9.02362        1.74257        3.57854
C          8.41464        3.14925        3.57712
C          8.10816        3.66032        2.16516
C          7.49791        5.06878        2.09061
C          8.31044        6.16943        2.75438
O          9.63413        6.20785        2.17073
C         10.42159        7.23828        2.72827
C         11.78787        7.19727        2.08704
C         12.09145        7.96791        0.94393
C         11.07649        8.85762        0.27479
C         11.04603       10.26995        0.88514
O         12.36369       10.82271        0.79821
C         12.75036       11.67189        1.86125
C         13.38450       10.89341        3.02008
F         14.45033       10.15931        2.61240
F         13.79411       11.73222        3.98992
F         12.50167       10.00559        3.58812
C         13.39887        7.91669        0.47049
C         14.33110        7.12539        1.14376
N         14.02191        6.37104        2.19136
N         12.76143        6.40815        2.61721
C         12.51591        5.43269        3.71669
C         12.02394        4.08148        3.19880
O         13.07900        3.44333        2.52500
C         12.70186        2.14711        2.02163
C         13.93560        1.42805        1.50516
C         14.91578        0.99867        2.60323
C         16.14050        0.25303        2.06126
C         17.10021       -0.21410        3.15836
H         12.21611       -1.97999        7.12734
H         12.51745       -1.74364        5.39528
H         11.04684       -2.57564        5.93486
H         11.70470        0.39170        6.49317
H         10.24395       -0.43186        7.02738
H          9.58340       -0.82721        4.62989
H         11.06252       -0.04241        4.09086
H         10.32310        2.08670        5.27184
H          8.80601        1.30523        5.69266
H          8.26479        1.01173        3.25226
H          9.82001        1.69714        2.81572
H          9.11619        3.83691        4.08210
H          7.49744        3.16184        4.19024
H          7.41565        2.96291        1.66813
H          9.03277        3.63521        1.56449
H          6.50708        5.07715        2.57436
H          7.32798        5.33913        1.03687
H          8.40992        6.00315        3.84302
H          7.82328        7.15109        2.60817
H         10.50317        7.14918        3.82731
H          9.97568        8.23087        2.53831
H         10.06947        8.42195        0.31974
H         11.34272        8.94261       -0.78802
H         10.70333       10.23459        1.93041
H         10.34151       10.89510        0.31138
H         11.91479       12.26937        2.26048
H         13.51608       12.35778        1.47377
H         13.69729        8.49869       -0.40109
H         15.37863        7.07310        0.84521
H         11.78891        5.85755        4.41497
H         13.48431        5.31720        4.21414
H         11.13798        4.21908        2.55160
H         11.69979        3.50161        4.08654
H         11.94825        2.27564        1.22135
H         12.23035        1.56689        2.83792
H         14.44179        2.07343        0.76809
H         13.58909        0.54088        0.94949
H         14.38539        0.35261        3.32573
H         15.24555        1.88494        3.16986
H         16.67802        0.90549        1.35249
H         15.80377       -0.61708        1.47251
H         17.48271        0.63422        3.74506
H         17.96574       -0.74144        2.73536
H         16.60302       -0.90238        3.85782
