43

C          2.48115        2.08458       -0.00688
C          3.91447        2.12453        0.52666
C          4.21636        0.95920        1.47922
C          5.64640        1.01419        1.97932
O          5.87776       -0.10495        2.91870
C          6.93340       -0.87756        2.67777
O          7.77372       -0.78770        1.82243
N          6.98468       -1.92835        3.67664
C          6.11717       -2.04652        4.75689
N          4.80585       -2.22211        4.58791
C          4.03630       -2.59596        3.45611
C          4.52300       -3.31151        2.35895
C          3.65017       -3.67590        1.33345
C          2.29559       -3.34236        1.41314
C          1.79368       -2.64835        2.51723
C          2.65991       -2.26901        3.54594
O          2.29949       -1.60163        4.68131
C          0.90386       -1.32074        4.89481
N          6.62716       -2.00088        5.99417
N          8.22177       -2.61729        3.67633
O          9.05987       -2.01246        4.70758
O          7.90971       -3.91124        4.15271
H          2.29036        2.92166       -0.69034
H          1.74890        2.14922        0.81119
H          2.28792        1.15303       -0.55817
H          4.08963        3.07967        1.04804
H          4.62368        2.09941       -0.31634
H          4.04955        0.00115        0.96107
H          3.52432        0.98865        2.33645
H          5.84701        1.92433        2.56124
H          6.38047        0.93345        1.16852
H          4.21325       -1.97821        5.38740
H          5.57067       -3.60254        2.31331
H          4.02980       -4.23472        0.47920
H          1.61415       -3.63300        0.61368
H          0.73393       -2.40668        2.57422
H          0.84918       -0.82174        5.86700
H          0.31716       -2.25029        4.91856
H          0.51933       -0.65000        4.11319
H          7.61909       -1.79093        6.09788
H          6.13358       -2.41569        6.77774
H          9.82998       -1.70793        4.19239
H          8.55741       -4.47048        3.68502
