71

C         13.26552        5.73749        9.35608
C         12.87825        4.86752        8.15766
C         12.84248        3.36973        8.48269
C         12.44645        2.49181        7.29121
C         12.43111        0.99373        7.61318
C         12.01552        0.12192        6.42289
C         12.02736       -1.37964        6.74435
C         11.57770       -2.20449        5.54915
O         11.64723       -3.65117        5.82994
C         10.54788       -4.20987        6.38335
O          9.52194       -3.64240        6.67159
C         10.71132       -5.71358        6.57821
N         12.08431       -6.15925        6.34338
C         12.66647       -7.26085        6.81114
N         11.92783       -8.33927        7.21626
C         10.81091       -8.85777        6.57347
N         10.18889       -8.44625        5.51466
N          9.14087       -9.35806        5.31630
C          9.23131      -10.24405        6.27327
O         10.29515       -9.98159        7.13645
S          8.28946      -11.64348        6.62849
C          7.05729      -11.54065        5.26966
C          6.06878      -12.69034        5.44466
N         13.99824       -7.30666        6.98645
C         14.87351       -8.48268        6.79422
C         14.34818       -9.48993        5.75731
O         13.76377       -8.78774        4.69110
Si        13.27712       -9.50712        3.22234
C         12.19210      -10.99903        3.58219
C         12.33972       -8.13656        2.36868
C         14.81327      -10.03432        2.28497
H         13.28973        6.80255        9.08879
H         14.26074        5.46909        9.74040
H         12.55046        5.61923       10.18394
H         13.58743        5.04180        7.33068
H         11.89121        5.18049        7.77776
H         12.13886        3.19501        9.31564
H         13.83385        3.05605        8.85536
H         13.14177        2.67764        6.45375
H         11.44963        2.79713        6.92813
H         11.74418        0.80773        8.45676
H         13.43182        0.68468        7.96243
H         12.68717        0.32193        5.57019
H         11.00520        0.41639        6.09179
H         11.35985       -1.58117        7.59667
H         13.04205       -1.69091        7.04258
H         12.24264       -2.07668        4.68598
H         10.54539       -1.97168        5.25788
H         10.02289       -6.22520        5.88395
H         10.39679       -5.96276        7.60112
H         12.66359       -5.48776        5.83979
H         12.37201       -8.96999        7.87834
H          7.60085      -11.60144        4.31870
H          6.56941      -10.56049        5.33658
H          6.56531      -13.66883        5.39387
H          5.32722      -12.64894        4.63621
H          5.52965      -12.62313        6.39884
H         14.46522       -6.40622        6.94413
H         15.06214       -8.98696        7.75524
H         15.83090       -8.06982        6.45161
H         13.62672      -10.19275        6.21703
H         15.21668      -10.09996        5.44712
H         11.25761      -10.71986        4.08513
H         12.70955      -11.75633        4.18821
H         11.91857      -11.48301        2.63336
H         11.47185       -7.83302        2.96998
H         11.97227       -8.47178        1.38862
H         12.98066       -7.25974        2.20243
H         15.38814      -10.79846        2.82754
H         15.47644       -9.18029        2.08993
H         14.53414      -10.46956        1.31450
