53

C          0.74770       -4.52599        6.40419
C          2.27517       -4.48469        6.33233
C          2.81086       -4.44532        4.89718
C          4.33988       -4.41839        4.82188
C          4.88673       -4.37331        3.39174
C          6.41848       -4.36436        3.33718
C          6.97406       -4.30960        1.91035
C          8.50612       -4.25223        1.82105
C          9.17185       -5.56667        2.31304
C         10.65892       -5.51816        2.23457
N         11.23329       -5.96544        1.09854
N         12.52027       -6.00754        0.76916
C         13.36851       -5.54411        1.68518
C         12.91590       -5.04713        2.93112
C         11.55631       -5.02199        3.21330
I         10.86122       -4.29229        5.03831
C         14.82509       -5.63446        1.34705
C         15.55942       -6.54688        2.34443
O         15.09708       -6.85211        3.42901
O         16.74245       -6.90616        1.84789
C         17.59755       -7.78125        2.66938
C         17.57910       -9.19836        2.11935
C         18.54932      -10.10103        2.88792
H          0.39501       -4.54720        7.44416
H          0.34931       -5.41833        5.89927
H          0.30211       -3.64473        5.91973
H          2.69368       -5.36418        6.85047
H          2.64793       -3.60338        6.88120
H          2.40242       -3.55961        4.37995
H          2.43236       -5.32190        4.34264
H          4.74373       -5.30745        5.33807
H          4.71649       -3.54460        5.38223
H          4.49784       -3.47845        2.87646
H          4.50635       -5.24092        2.82525
H          6.78948       -5.26316        3.86080
H          6.79852       -3.49811        3.90664
H          6.58021       -3.41397        1.40409
H          6.60427       -5.17241        1.32997
H          8.88504       -3.40775        2.41815
H          8.81398       -4.06949        0.77918
H          8.80171       -6.41054        1.70823
H          8.88659       -5.76302        3.35604
H         10.62391       -6.34040        0.36639
H         13.64423       -4.69243        3.65863
H         15.29674       -4.63991        1.40458
H         14.95802       -5.99995        0.32212
H         17.24727       -7.73445        3.70823
H         18.59571       -7.33012        2.59298
H         17.84933       -9.17204        1.05273
H         16.55574       -9.59886        2.18618
H         19.58133       -9.72700        2.82545
H         18.53934      -11.11709        2.47448
H         18.27937      -10.17083        3.95126
