41

C          1.18095        0.93221       -4.95222
C          2.63747        0.48351       -4.80901
C          2.79752       -0.71727       -3.86704
C          4.22062       -1.22980       -3.72929
O          5.01870       -0.21982       -3.06076
C          6.29915       -0.62420       -2.69395
N          7.27796       -0.44982       -3.79466
C          8.10922        0.59330       -3.91467
N          8.69446        1.13965       -2.82208
C          9.22232        0.37072       -1.67061
C         10.66589        0.53064       -1.56578
C         11.86096        0.69266       -1.48625
N          8.41199        1.11982       -5.12098
C          7.59920        1.12422       -6.36872
C          7.70414       -0.19044       -7.15092
O          6.98367       -1.22664       -6.46113
C          6.16550        1.60737       -6.12767
H          1.09067        1.78482       -5.63833
H          0.76163        1.24079       -3.98366
H          0.54857        0.12208       -5.34378
H          3.24703        1.32270       -4.43822
H          3.04114        0.21744       -5.80174
H          2.18319       -1.55737       -4.23141
H          2.41472       -0.46753       -2.86422
H          4.65212       -1.44982       -4.72431
H          4.25031       -2.15438       -3.12604
H          6.32234       -1.68398       -2.38852
H          6.61100        0.01132       -1.85711
H          7.08033       -0.94408       -4.68011
H          9.12220        2.05252       -2.95176
H          8.96188       -0.68698       -1.81910
H          8.73186        0.70647       -0.74334
H         12.92082        0.82317       -1.40025
H          9.28826        1.63043       -5.16404
H          8.10894        1.86716       -7.00113
H          8.76464       -0.46778       -7.26804
H          7.27077       -0.02792       -8.15148
H          7.07527       -2.05892       -6.95082
H          5.59611        0.94004       -5.47374
H          5.63505        1.66889       -7.08643
H          6.17172        2.60761       -5.67713
