67

C         14.68517        0.20013        5.48239
C         13.53510        0.09204        4.47787
C         13.92403       -0.64379        3.19082
C         12.78643       -0.74888        2.16982
C         13.18891       -1.48457        0.88756
C         12.06548       -1.57628       -0.15081
C         12.48745       -2.31707       -1.42400
C         11.39395       -2.36875       -2.49761
C         11.84741       -3.13034       -3.74908
C         10.78883       -3.10684       -4.85833
N         11.23023       -3.81381       -6.07542
C         11.74550       -3.22638       -7.13048
S         12.33722       -4.20350       -8.37256
C         11.51903       -5.72561       -7.57723
C         11.34556       -5.28342       -6.11005
C         12.40788       -6.98179       -7.68962
C         13.91581       -6.79742       -7.49365
O         14.50970       -6.07821       -8.57634
C         10.18572       -5.97474       -8.30649
C          9.06373       -4.93780       -8.18913
O          7.98207       -5.42592       -8.94383
Si         6.48911       -4.64069       -9.09990
C          6.76012       -2.92254       -9.81259
C          5.52688       -5.74083      -10.26062
C          5.68459       -4.51736       -7.40453
H         14.37559        0.72969        6.39359
H         15.53915        0.74647        5.05506
H         15.04753       -0.79407        5.78370
H         13.17171        1.10190        4.22254
H         12.68155       -0.42545        4.94768
H         14.28124       -1.65751        3.44532
H         14.78429       -0.13074        2.72522
H         12.43094        0.26461        1.91333
H         11.92523       -1.26284        2.63183
H         13.53317       -2.50201        1.14382
H         14.05923       -0.97715        0.43535
H         11.72706       -0.55892       -0.41401
H         11.19103       -2.08134        0.29513
H         12.79268       -3.34561       -1.16369
H         13.38475       -1.83234       -1.84660
H         11.10416       -1.34082       -2.77538
H         10.48774       -2.84311       -2.08423
H         12.08338       -4.17143       -3.47554
H         12.77765       -2.68676       -4.14157
H         10.55070       -2.07487       -5.15123
H          9.85182       -3.58125       -4.52969
H         11.81384       -2.13799       -7.17888
H         12.21347       -5.57094       -5.49443
H         10.44578       -5.73354       -5.66802
H         12.23800       -7.44488       -8.67389
H         12.03049       -7.70652       -6.94804
H         14.38786       -7.78373       -7.36195
H         14.14166       -6.21464       -6.58654
H         14.68015       -6.69361       -9.30737
H          9.79074       -6.93519       -7.93194
H         10.39218       -6.13246       -9.37681
H          9.40214       -3.95424       -8.57071
H          8.77412       -4.79446       -7.12736
H          7.28134       -2.96774      -10.77889
H          7.34085       -2.27744       -9.13720
H          5.79302       -2.42629       -9.97850
H          6.02464       -5.81147      -11.23733
H          4.51500       -5.34453      -10.42491
H          5.43012       -6.75615       -9.85270
H          6.25962       -3.88268       -6.71483
H          5.57055       -5.50983       -6.94657
H          4.68192       -4.07396       -7.49005
