78

C          4.39787       -6.68827      -19.81691
C          5.78975       -6.53648      -19.19805
C          5.75652       -6.09845      -17.72943
C          7.14507       -5.94452      -17.10129
C          7.11354       -5.50054      -15.63505
C          8.50589       -5.35324      -15.01383
C          8.49032       -4.90672      -13.54787
C          9.89302       -4.78101      -12.94618
C          9.91205       -4.35214      -11.47429
C         11.33707       -4.27892      -10.91534
C         11.41055       -3.89772       -9.44602
O         12.79788       -3.94022       -9.06765
C         13.06204       -3.72502       -7.70284
C         14.52631       -4.09201       -7.45899
S         14.76846       -5.90910       -7.75947
C         15.47323       -5.61241       -9.29055
N         15.70021       -4.34900       -9.54052
C         15.50697       -3.39485       -8.43769
C         16.87245       -3.02321       -7.83141
C         17.77656       -2.23666       -8.79472
C         19.16343       -1.97752       -8.20215
O         19.95081       -1.15304       -9.03868
O         17.90329       -2.86628      -10.08759
C         15.84514       -6.70270      -10.24059
C         17.37540       -6.87019      -10.38351
C         17.70561       -7.94020      -11.45738
N         19.04210       -7.65454      -11.97647
C         19.30130       -8.15074      -13.33890
C         20.74087       -7.86470      -13.72883
O         21.56863       -8.53164      -12.76889
O         17.96085       -5.63916      -10.79024
H          4.45556       -7.00219      -20.86819
H          3.84053       -5.74023      -19.78404
H          3.80098       -7.43964      -19.27868
H          6.37513       -5.80514      -19.78099
H          6.33593       -7.49181      -19.27908
H          5.16986       -6.82930      -17.14505
H          5.21064       -5.14184      -17.64791
H          7.73240       -5.21697      -17.68913
H          7.68885       -6.90277      -17.17998
H          6.52538       -6.22601      -15.04594
H          6.57404       -4.54050      -15.55554
H          9.09453       -4.63137      -15.60725
H          9.04233       -6.31561      -15.09388
H          7.89916       -5.62430      -12.95239
H          7.96551       -3.93922      -13.46376
H         10.48117       -4.06029      -13.54118
H         10.41542       -5.74943      -13.04456
H          9.31511       -5.06307      -10.87752
H          9.41694       -3.37195      -11.36830
H         11.93003       -3.55395      -11.49678
H         11.82982       -5.25828      -11.03821
H         10.83926       -4.60760       -8.81835
H         11.00437       -2.88446       -9.26887
H         12.40247       -4.33476       -7.05501
H         12.91680       -2.66207       -7.41494
H         14.80124       -3.89438       -6.41503
H         16.28256       -4.04366      -10.33392
H         15.01846       -2.49897       -8.85157
H         17.38053       -3.94024       -7.48574
H         16.69112       -2.40173       -6.94045
H         17.30988       -1.26451       -9.02276
H         19.65891       -2.95233       -8.00446
H         19.07400       -1.45278       -7.23902
H         19.90990       -1.52026       -9.93814
H         18.32092       -3.74885       -9.99773
H         15.42552       -6.45100      -11.22751
H         15.39700       -7.65086       -9.91408
H         17.79177       -7.17731       -9.40455
H         16.99626       -7.83604      -12.29375
H         17.58363       -8.95592      -11.04165
H         19.76835       -8.03647      -11.36453
H         18.62410       -7.63852      -14.03879
H         19.11582       -9.23839      -13.41991
H         20.92624       -6.77533      -13.72002
H         20.92028       -8.24330      -14.74985
H         22.49925       -8.37985      -12.99145
H         18.66661       -5.96777      -11.43013
