46

C          2.20095        1.04718       -0.21755
C          2.50662        0.23474       -1.45767
O          3.59002       -0.68239       -1.15198
C          3.80832       -1.67523       -2.15832
C          4.83207       -2.69275       -1.66166
N          6.26403       -2.33273       -1.82614
C          6.81198       -1.22999       -1.27769
N          8.12580       -0.94098       -1.17267
N          8.34059        0.28586       -0.59383
C          7.13973        0.74975       -0.34964
N          6.17004       -0.16108       -0.75142
C          6.84962        2.08229        0.25081
C          5.85055        2.05838        1.39475
C          4.92704        3.10367        1.52972
C          4.03176        3.12505        2.60181
C          4.04254        2.09399        3.54414
C          4.95937        1.04688        3.41588
C          5.86113        1.03161        2.35014
C          7.16878       -3.37258       -2.26947
C          7.41160       -3.54251       -3.63277
C          8.27721       -4.57414       -4.01496
N          8.88370       -5.39324       -3.14547
C          8.63970       -5.21194       -1.84046
C          7.78879       -4.21740       -1.34475
H          1.38567        1.75047       -0.43180
H          3.07005        1.63024        0.11361
H          1.88564        0.39902        0.60990
H          2.80626        0.87572       -2.30600
H          1.63385       -0.36135       -1.77323
H          4.13183       -1.21744       -3.11160
H          2.86286       -2.21421       -2.34263
H          4.70756       -3.61616       -2.23918
H          4.62310       -2.93082       -0.60502
H          8.91044       -1.52163       -1.45052
H          5.12215       -0.10250       -0.72244
H          6.48394        2.75358       -0.54348
H          7.81825        2.49107        0.57723
H          4.91538        3.91369        0.79714
H          3.32542        3.94995        2.69930
H          3.34383        2.10963        4.38055
H          4.98048        0.24493        4.15453
H          6.58982        0.22100        2.27411
H          6.94258       -2.89395       -4.37295
H          8.49374       -4.74487       -5.07257
H          9.14504       -5.89595       -1.15387
H          7.61196       -4.11169       -0.27337
