63

N          1.59149        0.43116        0.67962
C          2.92854        0.11187        0.17336
C          3.54366       -1.03963        0.97255
C          4.92082       -1.45865        0.45173
C          5.55535       -2.59136        1.26553
C          6.94231       -2.94732        0.72584
N          7.65874       -3.95330        1.53422
C          7.28509       -5.36569        1.36821
C          8.54717       -6.17230        1.08075
C          9.51395       -6.00256        2.24150
N          9.60878       -4.59525        2.68022
C          8.75574       -3.65498        2.23972
N          9.02231       -2.32681        2.50329
N          8.05298       -1.61299        3.22064
O          8.49901       -1.45874        4.57663
O          8.08432       -0.30171        2.64535
C         10.67588       -4.29155        3.65807
C         11.95746       -3.68330        3.05714
C         12.54498       -4.47012        1.87940
S         13.74945       -3.52414        0.91512
C         12.68753       -2.70619       -0.28612
S         11.02760       -2.94939       -0.35845
N         13.36576       -1.90011       -1.12883
C         12.70455       -1.14718       -2.20476
C         13.06138        0.33409       -2.08859
O         14.47232        0.53847       -2.09704
C         15.09049       -0.15727       -1.02334
C         14.81627       -1.66357       -1.09357
H          1.12082        1.09723        0.06760
H          1.64563        0.87054        1.59984
H          3.63312        0.97067        0.17499
H          2.82036       -0.19734       -0.87883
H          2.84730       -1.89273        0.94901
H          3.62633       -0.74204        2.03369
H          5.60031       -0.58752        0.45571
H          4.83479       -1.76558       -0.60491
H          4.90056       -3.47813        1.24522
H          5.65186       -2.29695        2.32144
H          7.57636       -2.05549        0.66506
H          6.86616       -3.36389       -0.29175
H          6.57133       -5.41944        0.53868
H          6.77027       -5.72474        2.27366
H          9.00336       -5.81628        0.14539
H          8.31168       -7.23699        0.95707
H         10.51966       -6.34570        1.96446
H          9.19149       -6.59677        3.11254
H          9.99688       -2.04529        2.61881
H          9.14600       -0.71786        4.55532
H          7.20690        0.05558        2.87969
H         10.90449       -5.24519        4.15404
H         10.26461       -3.62423        4.42758
H         12.69407       -3.59821        3.87011
H         11.77242       -2.65302        2.71567
H         11.76292       -4.74402        1.15583
H         13.08139       -5.37217        2.20661
H         11.62378       -1.30695       -2.12342
H         13.05532       -1.54687       -3.17053
H         12.62108        0.75242       -1.16210
H         12.66117        0.88571       -2.94912
H         14.73373        0.23684       -0.05111
H         16.16916        0.03032       -1.10478
H         15.26786       -2.16369       -0.22921
H         15.26170       -2.08841       -2.00814
