50

C          0.73353       -0.95861        0.68641
C          2.23958       -0.80470        0.46000
C          2.94630       -0.19036        1.68129
C          4.44668       -0.04923        1.43361
S          5.24526        0.84164        2.82955
C          5.03341       -0.27797        4.16123
N          5.55120       -1.46165        4.30258
N          5.08979       -1.94460        5.50879
C          4.30891       -1.00252        6.01850
O          4.22894        0.10652        5.19897
S          3.41739       -0.96108        7.48348
C          3.87945       -2.58755        8.20413
C          3.10496       -2.74862        9.51352
C          3.47547       -4.05607       10.22996
C          2.69725       -4.24798       11.53388
C          7.06274        0.69744        2.52096
C          7.49103        1.45014        1.25452
C          9.00688        1.46824        1.20411
C          9.71040        0.39098        0.64605
C         11.10649        0.39134        0.63322
C         11.81103        1.46783        1.17916
C         11.11663        2.54580        1.73544
C          9.72042        2.54439        1.75162
H          0.25107       -1.39727       -0.19587
H          0.25524        0.01226        0.87901
H          0.52053       -1.61462        1.54243
H          2.42153       -0.16960       -0.42219
H          2.68733       -1.78608        0.23495
H          2.77348       -0.82678        2.56389
H          2.50749        0.79594        1.90402
H          4.66190        0.58985        0.56370
H          4.96564       -1.01181        1.32436
H          4.96562       -2.58577        8.36382
H          3.62749       -3.36740        7.47404
H          2.02198       -2.73202        9.30931
H          3.31349       -1.89483       10.17961
H          4.55790       -4.06095       10.43788
H          3.28826       -4.90732        9.55496
H          2.88788       -3.42604       12.23924
H          2.98444       -5.18415       12.02952
H          1.61352       -4.28639       11.35206
H          7.30191       -0.37399        2.49931
H          7.49913        1.14604        3.42517
H          7.10126        2.47923        1.26990
H          7.09124        0.95267        0.35927
H          9.16534       -0.44864        0.20809
H         11.64489       -0.44761        0.19170
H         12.90117        1.46950        1.16485
H         11.66221        3.39294        2.15178
H          9.18268        3.39452        2.17781
