88

O          2.99409        1.29854        0.68862
C          2.49172        0.63947        1.85333
C          2.84537       -0.83545        1.69068
N          4.27404       -0.93197        1.39342
C          4.97996       -2.07913        1.36113
N          6.27956       -2.05830        1.02004
C          7.11262       -3.27055        1.03355
C          6.62505       -4.23248        2.12732
C          5.13547       -4.52673        1.83995
N          4.41197       -3.24227        1.69582
C          4.39109       -5.38107        2.87069
C          4.96064       -6.79368        3.02542
C          4.08383       -7.69122        3.90405
C          4.58575       -9.13572        3.97303
C          3.67670      -10.06362        4.78398
C          4.12400      -11.52734        4.74367
C          3.21860      -12.47523        5.53523
C          3.64759      -13.94196        5.43593
C          2.77370      -14.90125        6.24923
C          3.20309      -16.36623        6.12570
C          2.37148      -17.33079        6.97780
C          2.80934      -18.79070        6.83618
C          6.90637       -3.72960        3.55541
C          8.39560       -3.65121        3.91277
C          8.67952       -3.26133        5.37932
C          8.17055       -4.33133        6.36405
C          8.27211       -3.95400        7.85609
C          7.54004       -4.93232        8.73333
C          8.06246       -5.95988        9.42766
C          9.52966       -6.29906        9.46120
C          7.18007       -6.86618       10.24582
C         10.17665       -2.97548        5.56209
H          2.81488        2.24918        0.75176
H          1.39722        0.73512        1.94152
H          2.95755        1.04077        2.77013
H          2.24380       -1.27417        0.87519
H          2.61538       -1.35908        2.63130
H          4.63290       -0.12795        0.87862
H          6.72297       -1.15543        0.89820
H          8.14663       -2.95474        1.21330
H          7.07917       -3.75296        0.04434
H          7.16523       -5.17990        1.97656
H          5.08113       -5.04821        0.86759
H          3.41240       -3.25111        1.86706
H          3.34002       -5.46205        2.53949
H          4.36888       -4.86383        3.84310
H          5.97760       -6.75004        3.44960
H          5.06412       -7.25456        2.02745
H          3.05255       -7.68567        3.50958
H          4.02303       -7.26698        4.92124
H          5.60480       -9.15356        4.39717
H          4.67899       -9.53120        2.94609
H          2.64480       -9.98881        4.39769
H          3.63347       -9.71658        5.83108
H          5.15709      -11.60573        5.12548
H          4.16661      -11.86089        3.69169
H          2.17909      -12.37307        5.17674
H          3.20352      -12.16733        6.59558
H          4.69674      -14.03788        5.76708
H          3.63853      -14.25052        4.37544
H          1.72126      -14.79942        5.93063
H          2.79690      -14.60193        7.31208
H          4.26695      -16.45892        6.40800
H          3.14638      -16.67448        5.06648
H          1.30730      -17.23505        6.70291
H          2.43751      -17.02633        8.03629
H          2.71173      -19.13770        5.79660
H          2.20429      -19.45701        7.46627
H          3.86173      -18.92172        7.12947
H          6.41001       -4.41132        4.25835
H          6.43872       -2.74300        3.71854
H          8.90334       -2.91762        3.26371
H          8.87348       -4.62491        3.70172
H          8.12746       -2.32404        5.58719
H          8.72083       -5.27410        6.19700
H          7.11293       -4.56043        6.15332
H          7.83845       -2.94863        7.99700
H          9.32686       -3.87463        8.15416
H          6.45306       -4.79713        8.77910
H         10.14455       -5.63028        8.84760
H          9.69540       -7.32885        9.10618
H          9.91477       -6.26346       10.49283
H          6.12478       -6.57021       10.18729
H          7.48032       -6.85687       11.30621
H          7.26526       -7.91250        9.91007
H         10.77368       -3.88702        5.40310
H         10.40178       -2.60288        6.56929
H         10.52796       -2.21782        4.84673
