56

C          5.07454        3.36454       -6.75024
C          5.20366        1.91731       -6.27050
C          6.47115        1.66547       -5.44813
C          6.61274        0.22141       -4.95726
C          7.87965       -0.01598       -4.13034
C          8.03536       -1.45594       -3.63027
C          9.32193       -1.65743       -2.82245
C          9.51447       -3.05003       -2.24467
O          9.56844       -4.09204       -3.29052
C         10.74448       -4.28642       -3.88734
O         11.77644       -3.67666       -3.67419
C         10.65819       -5.43836       -4.90334
C         11.44959       -5.13331       -6.12685
C         10.98866       -4.84827       -7.38268
N         12.08276       -4.50519       -8.14980
C         13.21181       -4.57404       -7.42850
N         12.84131       -4.94721       -6.17685
C         13.83017       -5.06087       -5.08172
O         14.75255       -4.29512       -5.01993
O         13.54090       -6.12169       -4.35301
C         14.45020       -6.39354       -3.20737
C         13.86325       -5.85711       -1.92138
C         14.57160       -4.22495       -7.93994
C         15.63654       -5.30202       -7.86289
C         15.52904       -6.61704       -8.07491
Br        13.91855       -7.50188       -8.54072
Br        17.38180       -4.62487       -7.52287
H          4.15536        3.51596       -7.33184
H          5.92378        3.64991       -7.38878
H          5.05054        4.06392       -5.90179
H          5.19294        1.23707       -7.13896
H          4.32145        1.64924       -5.66544
H          6.48155        2.34719       -4.57993
H          7.35562        1.93416       -6.05257
H          6.60681       -0.46208       -5.82500
H          5.72778       -0.04737       -4.35472
H          7.88281        0.66958       -3.26536
H          8.76405        0.25720       -4.73296
H          8.02129       -2.14613       -4.49077
H          7.16477       -1.72665       -3.00857
H          9.32672       -0.96855       -1.96040
H         10.20304       -1.38861       -3.42596
H          8.65864       -3.36097       -1.63285
H         10.43872       -3.11709       -1.65692
H          9.61487       -5.62012       -5.18580
H         11.03343       -6.34371       -4.40379
H          9.97929       -4.84431       -7.77593
H         12.06455       -4.29328       -9.14364
H         15.42212       -5.94647       -3.44491
H         14.52926       -7.48664       -3.21030
H         13.75047       -4.76715       -1.95500
H         14.54608       -6.10800       -1.09775
H         12.89028       -6.31493       -1.70218
H         14.92826       -3.35212       -7.37439
H         14.46104       -3.90174       -8.98884
H         16.37748       -7.29501       -8.02536
