53

C          1.07835        0.34641        0.46238
C          2.57072        0.19431        0.15593
C          2.96524        0.89106       -1.13660
O          4.37604        0.70657       -1.35460
C          4.84675        1.31733       -2.54568
C          6.36766        1.09393       -2.63468
C          6.90950        1.69223       -3.94177
O          6.69907        3.08698       -3.92843
C          7.16800        3.73910       -5.12267
C          6.90848        5.22631       -4.99679
C          6.72522       -0.41858       -2.54990
C          7.12715       -0.65693       -1.10119
N          7.84671        0.62532       -0.71204
C          7.05911        1.73157       -1.39708
C          9.32122        0.59534       -0.98490
C         10.00247        0.25374        0.34911
O          9.35326        0.21825        1.38338
O         11.29824        0.06047        0.19348
C         12.10278       -0.25295        1.39999
C         12.35950       -1.74751        1.48784
C         13.28589       -2.07433        2.66458
H          0.82109       -0.16462        1.39857
H          0.45706       -0.08805       -0.33378
H          0.79442        1.40282        0.57184
H          2.83228       -0.87282        0.07714
H          3.16957        0.61067        0.98152
H          2.74033        1.97364       -1.08556
H          2.40425        0.47291       -1.99402
H          4.62617        2.40071       -2.55185
H          4.36217        0.87099       -3.43633
H          6.40247        1.21657       -4.80594
H          7.99303        1.46026       -4.03590
H          6.64188        3.31520       -5.99799
H          8.24815        3.53181       -5.24933
H          5.83577        5.42832       -4.88068
H          7.25869        5.74355       -5.89958
H          7.43956        5.64789       -4.13306
H          7.55348       -0.65700       -3.23487
H          5.87557       -1.05593       -2.82100
H          7.78954       -1.51130       -0.91999
H          6.24344       -0.72384       -0.45603
H          7.81737        0.71467        0.32785
H          7.73131        2.55726       -1.65314
H          6.31643        2.07777       -0.66902
H          9.65679        1.58517       -1.31967
H          9.56052       -0.13620       -1.76516
H         11.56839        0.13258        2.27740
H         13.02914        0.31460        1.24629
H         12.81020       -2.09051        0.54424
H         11.40047       -2.27540        1.60555
H         14.25935       -1.57500        2.55911
H         13.47065       -3.15426        2.71652
H         12.84726       -1.76386        3.62305
