53

C         10.36163        3.04617        3.56658
C          9.50724        2.64076        2.36480
C         10.15968        1.55588        1.50102
C          9.29350        1.14972        0.30442
C          9.96345        0.11268       -0.57907
O          9.06757       -0.21455       -1.65877
C          9.61916       -1.10257       -2.59549
C          8.48674       -1.39411       -3.58842
N          8.94215       -2.20344       -4.72488
C          8.98081       -3.59609       -4.78962
C          8.43725       -4.50835       -3.74002
C          9.03863       -5.92141       -3.76536
C         10.52469       -5.96860       -3.34579
C         10.76861       -5.35901       -2.04379
C         10.93251       -4.84130       -0.96103
N          9.51038       -3.97893       -5.93461
N          9.79886       -2.82214       -6.58098
C          9.46706       -1.73328       -5.88592
C          9.62673       -0.32469       -6.34425
C          9.45537       -0.19492       -7.88109
C          9.68785        1.23702       -8.35676
O         11.08473        1.48377       -8.16722
O         10.35427       -1.08033       -8.55917
H          9.86930        3.82712        4.16113
H         11.33898        3.43721        3.24767
H         10.54725        2.18965        4.23108
H          9.30437        3.52542        1.73834
H          8.52387        2.28274        2.71237
H         10.36928        0.67019        2.12545
H         11.13975        1.91818        1.14467
H          9.06114        2.03644       -0.30720
H          8.33041        0.74731        0.65699
H         10.19946       -0.80662       -0.00971
H         10.91140        0.50405       -0.99624
H          9.97362       -2.04208       -2.12541
H         10.48431       -0.65252       -3.12763
H          8.08094       -0.44895       -3.97070
H          7.66690       -1.92822       -3.09433
H          7.34441       -4.56868       -3.87946
H          8.60323       -4.06266       -2.74721
H          8.93555       -6.36179       -4.76621
H          8.45028       -6.53959       -3.07421
H         11.15083       -5.47667       -4.10798
H         10.85073       -7.02026       -3.32224
H         11.10527       -4.43096        0.01215
H         10.20607       -2.78212       -7.52249
H         10.62594        0.04790       -6.06265
H          8.89153        0.31134       -5.82967
H          8.43608       -0.50390       -8.15994
H          9.06526        1.94496       -7.78261
H          9.40987        1.30271       -9.42087
H         11.34469        2.27720       -8.65968
H         11.18252       -0.57484       -8.68515
