44

N          2.91027        0.66368       -0.36207
C          2.27343       -0.54317       -0.89934
C          3.01573       -1.00601       -2.16306
P          4.82985       -0.92550       -1.96535
C          5.41318       -1.54507       -0.33625
C          4.71858       -2.87886       -0.07603
O          4.39913       -3.64336       -0.97352
O          4.52311       -3.07294        1.23027
C          3.84333       -4.32104        1.62266
C          2.33680       -4.14328        1.58686
C          6.95127       -1.66497       -0.26692
C          5.66462       -1.74954       -3.35835
C          5.22162       -1.31056       -4.77047
C          5.30336        0.17765       -5.16003
C          6.69308        0.82813       -5.28259
S          7.33980        1.46464       -3.71893
O          6.31871        2.28789       -3.09232
O          7.95546        0.38730       -2.97539
O          8.54381        2.41413       -4.21305
H          2.58816        0.85698        0.58598
H          2.68072        1.48882       -0.91893
H          1.20300       -0.43190       -1.14828
H          2.33329       -1.32845       -0.13193
H          2.78457       -0.35382       -3.02074
H          2.75007       -2.03442       -2.44278
H          5.20278        0.43422       -1.98676
H          5.06348       -0.79279        0.38666
H          4.21359       -4.50268        2.63801
H          4.18304       -5.12091        0.95333
H          2.02189       -3.30433        2.22159
H          1.85558       -5.05349        1.97011
H          1.97590       -3.98264        0.56237
H          7.32405       -2.47161       -0.91027
H          7.23858       -1.89058        0.76736
H          7.43879       -0.72795       -0.56319
H          5.47333       -2.82343       -3.21967
H          6.73790       -1.57306       -3.20206
H          4.18406       -1.63684       -4.93774
H          5.82731       -1.89764       -5.47811
H          4.67736        0.80664       -4.50643
H          4.84477        0.26363       -6.15604
H          6.63871        1.70851       -5.93673
H          7.46145        0.14944       -5.67898
H          8.24552        3.34408       -4.16675
