46

C          0.36660       -2.87085       -0.57844
C          1.87510       -2.61069       -0.60447
C          2.70425       -3.90013       -0.52686
C          4.22291       -3.70203       -0.65227
C          4.83641       -2.90158        0.50752
C          6.37057       -2.83081        0.46275
O          6.97292       -2.42711        1.69391
C          6.69316       -1.08623        2.03432
C          7.25941       -0.06789        0.99833
N          6.70725       -0.51255       -0.33761
C          6.94010       -1.94842       -0.68064
Br         7.19201        0.68407       -1.85452
C          8.77975        0.17294        1.03898
C          9.00469        1.22557        2.15325
O          8.09524        1.78383        2.74165
O         10.30689        1.43382        2.35469
C         10.67629        2.43362        3.37274
C         10.83706        3.80508        2.74793
C          9.71656       -1.03727        1.19021
H         -0.20229       -1.93343       -0.63147
H          0.06786       -3.38942        0.34394
H          0.05605       -3.49778       -1.42644
H          2.13430       -1.94017        0.23274
H          2.13922       -2.06670       -1.52885
H          2.38112       -4.58069       -1.33029
H          2.48374       -4.42504        0.41828
H          4.43499       -3.20733       -1.61711
H          4.71299       -4.68827       -0.69928
H          4.57500       -3.38218        1.46348
H          4.37890       -1.89758        0.54643
H          6.76563       -3.84210        0.27664
H          7.18161       -0.87909        2.99502
H          5.61196       -0.90918        2.16713
H          6.77953        0.89815        1.20977
H          5.69053       -0.35185       -0.30927
H          8.01720       -2.09578       -0.79596
H          6.43614       -2.15744       -1.63104
H          9.04628        0.70100        0.10430
H         11.62181        2.04952        3.77305
H          9.90875        2.42156        4.15597
H         11.57505        3.78835        1.93570
H         11.19186        4.50885        3.51343
H          9.88227        4.18368        2.36103
H          9.49915       -1.61770        2.09518
H         10.75014       -0.68225        1.25423
H          9.65775       -1.71752        0.33274
