165

C          2.40374       -0.31859        3.50595
C          3.85232       -0.51496        3.05312
C          4.00938       -1.58083        1.96352
C          5.45245       -1.76616        1.48470
C          5.60339       -2.83034        0.39346
C          7.03478       -2.97773       -0.13211
C          7.16506       -4.00752       -1.25876
C          8.57287       -4.09309       -1.85759
C          8.66065       -5.04445       -3.05524
C         10.04792       -5.08826       -3.70413
C         10.08924       -5.96555       -4.95955
C         11.46918       -5.98783       -5.63488
C         11.40485       -6.74529       -6.95312
N         12.75339       -6.96215       -7.61441
C         12.62747       -7.74351       -8.90189
C         14.01869       -8.08168       -9.42297
O         14.80357       -6.91725       -9.59433
C         14.98279       -6.20878       -8.36475
C         13.62003       -5.70007       -7.82448
C         12.91773       -4.65669       -8.70331
C         13.21196       -3.21797       -8.23751
C         12.77299       -2.16152       -9.27589
S         14.03845       -0.91270       -9.62150
C         15.05236       -1.74427      -10.85546
S         14.61689       -3.19802      -11.57113
N         16.17640       -1.06773      -11.16346
C         16.58017        0.19652      -10.52633
C         17.49022       -0.00293       -9.30416
C         18.26094        1.26960       -8.94026
C         19.18899        1.10448       -7.73174
C         20.07771        2.32829       -7.48879
C         21.00420        2.19562       -6.27670
C         21.92141        3.40856       -6.08605
C         22.86407        3.28316       -4.88766
C         17.09451       -1.57611      -12.19682
C         16.71809       -1.10461      -13.60512
C         17.62072       -1.71299      -14.68176
C         17.20684       -1.30582      -16.09962
C         18.06496       -1.93662      -17.20071
C         17.59329       -1.58354      -18.61523
C         18.46589       -2.18126      -19.72467
C         17.94907       -1.87698      -21.13299
C         15.97359       -5.07930       -8.59807
C         17.36209       -5.52806       -9.04730
O         18.12383       -4.33528       -9.12865
C         19.45205       -4.50272       -9.61500
C         19.98568       -3.09047       -9.80671
O         21.36038       -3.17123      -10.15246
C         22.01893       -1.97813      -10.34791
C         23.39901       -2.06286      -10.57872
C         24.14301       -0.90441      -10.76247
C         23.56017        0.37840      -10.71912
C         22.17847        0.43175      -10.51473
C         21.40650       -0.72193      -10.32937
C         24.42313        1.63544      -10.91982
C         25.66720        1.64030       -9.97293
C         25.57476        1.82790       -8.42605
C         25.38630        3.30926       -8.03663
C         24.46994        0.97804       -7.77027
C         26.93557        1.37109       -7.85657
C         24.97792        1.59084      -12.36829
C         23.59699        2.92839      -10.79307
H          2.32612        0.44762        4.28923
H          1.98153       -1.25049        3.91064
H          1.76307       -0.00423        2.66838
H          4.47702       -0.78897        3.92017
H          4.25579        0.44309        2.68315
H          3.37179       -1.31615        1.10090
H          3.62092       -2.54452        2.33821
H          6.09421       -2.02769        2.34460
H          5.83552       -0.80168        1.10618
H          4.93461       -2.58132       -0.44952
H          5.25124       -3.80333        0.77877
H          7.70858       -3.25004        0.69919
H          7.38795       -1.99689       -0.49707
H          6.44906       -3.75441       -2.06082
H          6.86137       -5.00202       -0.88767
H          9.29005       -4.40794       -1.07966
H          8.89275       -3.08444       -2.17348
H          7.91812       -4.73679       -3.81238
H          8.36922       -6.06201       -2.74220
H         10.78998       -5.45210       -2.97253
H         10.35822       -4.06244       -3.96948
H          9.33968       -5.59647       -5.68063
H          9.78715       -6.99544       -4.70478
H         12.20461       -6.45794       -4.95867
H         11.80328       -4.95280       -5.80245
H         10.76792       -6.23224       -7.68450
H         10.99221       -7.75463       -6.80731
H         13.30039       -7.54961       -6.96590
H         12.07455       -7.11374       -9.60955
H         12.04261       -8.64842       -8.68976
H         13.93507       -8.56613      -10.40419
H         14.52166       -8.79188       -8.73344
H         15.39672       -6.91938       -7.61054
H         13.78063       -5.31014       -6.80871
H         11.82837       -4.81279       -8.70519
H         13.25571       -4.76378       -9.74464
H         14.28775       -3.10363       -8.05927
H         12.72069       -3.02555       -7.27029
H         11.90559       -1.58127       -8.93379
H         12.52953       -2.62668      -10.24332
H         15.68493        0.77917      -10.26560
H         17.10822        0.77881      -11.29622
H         18.20093       -0.81396       -9.52361
H         16.88761       -0.35222       -8.45139
H         17.55459        2.09598       -8.75097
H         18.86005        1.58354       -9.81415
H         19.83106        0.21908       -7.87910
H         18.58630        0.89677       -6.83039
H         19.44492        3.22532       -7.36960
H         20.68931        2.50984       -8.39021
H         21.62036        1.28620       -6.38580
H         20.39989        2.04493       -5.36474
H         21.30437        4.31649       -5.97655
H         22.51382        3.55744       -7.00338
H         22.30459        3.18306       -3.94566
H         23.51514        4.16323       -4.79541
H         23.51279        2.40008       -4.98130
H         17.08301       -2.67288      -12.14351
H         18.10385       -1.22728      -11.92929
H         16.76505       -0.00366      -13.65145
H         15.67165       -1.38743      -13.79794
H         17.59022       -2.81338      -14.59672
H         18.67068       -1.42178      -14.50262
H         17.24558       -0.20611      -16.19078
H         16.15002       -1.58391      -16.25751
H         18.06077       -3.03463      -17.08091
H         19.11599       -1.62327      -17.07323
H         17.56298       -0.48530      -18.72880
H         16.55143       -1.92691      -18.74578
H         18.53258       -3.27363      -19.58503
H         19.49611       -1.80117      -19.61848
H         16.94029       -2.28904      -21.28548
H         18.60245       -2.30715      -21.90449
H         17.89225       -0.79328      -21.31343
H         16.08749       -4.50495       -7.66561
H         15.57827       -4.40023       -9.36958
H         17.31421       -6.03205      -10.03012
H         17.81410       -6.23741       -8.32278
H         19.45651       -5.05607      -10.57239
H         20.07698       -5.05857       -8.89119
H         19.85009       -2.51919       -8.87052
H         19.40843       -2.59021      -10.60288
H         23.87169       -3.04508      -10.60362
H         25.21555       -1.00935      -10.93149
H         21.66669        1.39278      -10.48077
H         20.33628       -0.61891      -10.16545
H         26.34598        2.42552      -10.34779
H         26.20191        0.69408      -10.15190
H         24.41144        3.70818       -8.34118
H         26.16260        3.93980       -8.49494
H         25.46015        3.42905       -6.94560
H         23.46434        1.28233       -8.08756
H         24.51931        1.08335       -6.67644
H         24.58042       -0.08865       -8.00944
H         27.76711        1.93676       -8.30323
H         27.11038        0.30319       -8.05467
H         26.97497        1.52378       -6.76788
H         25.63735        0.72623      -12.52493
H         25.55714        2.49962      -12.58845
H         24.15571        1.52179      -13.09430
H         23.07097        3.01012       -9.83295
H         22.84607        2.99664      -11.59376
H         24.25438        3.80335      -10.88732
