63

C         10.72636       -1.24055       -7.29611
C         10.24556       -1.01408       -5.86058
C         10.70896       -2.10347       -4.88767
C         10.27334       -1.86467       -3.43876
C         10.75596       -2.94654       -2.46805
C         10.35528       -2.69077       -1.01195
C         10.88696       -3.74821       -0.04044
C         10.50586       -3.49474        1.42120
C         11.11927       -4.51468        2.38523
C         10.76515       -4.26292        3.85533
C         11.35044       -5.29066        4.83589
C         12.88512       -5.27601        4.88957
C         13.41638       -6.34356        5.84530
N         14.87490       -6.27822        6.01985
C         15.81852       -6.15441        4.89101
C         17.09461       -5.66102        5.58664
N         16.90351       -6.22688        6.93461
C         15.56769       -6.40712        7.16412
N         15.06196       -6.65036        8.38145
C         13.99762       -7.60031        8.73053
O         14.59504       -8.50535        9.61538
C         13.63826       -9.33902       10.31152
C         14.39538      -10.19030       11.30913
I         18.28660       -5.91688        8.41319
H         10.37899       -0.44482       -7.96896
H         10.35741       -2.19727       -7.69501
H         11.82528       -1.26420       -7.34917
H          9.14403       -0.95638       -5.84366
H         10.60351       -0.03377       -5.50269
H         11.81036       -2.18001       -4.92746
H         10.32810       -3.08257       -5.22852
H          9.17230       -1.79564       -3.39228
H         10.65054       -0.88234       -3.10325
H         11.85592       -3.02614       -2.53242
H         10.36483       -3.92825       -2.78831
H          9.25504       -2.64191       -0.93620
H         10.72291       -1.69652       -0.70246
H         11.98797       -3.79257       -0.12457
H         10.52238       -4.74481       -0.34565
H          9.40725       -3.50337        1.52500
H         10.82898       -2.47999        1.71302
H         12.21484       -4.49976        2.24823
H         10.79321       -5.53126        2.10160
H          9.66942       -4.26577        3.96717
H         11.09413       -3.25069        4.14792
H         11.00510       -6.30056        4.55389
H         10.95201       -5.09850        5.84598
H         13.23891       -4.28348        5.21532
H         13.28270       -5.44668        3.87825
H         13.13000       -7.34866        5.49113
H         12.96552       -6.19533        6.83527
H         15.44797       -5.43873        4.15088
H         15.96178       -7.13452        4.40766
H         17.14844       -4.56061        5.62608
H         18.00903       -6.05540        5.13086
H         15.72419       -6.52473        9.15080
H         13.62980       -8.09208        7.81370
H         13.15922       -7.06509        9.21644
H         13.10085       -9.96574        9.57729
H         12.89754       -8.69102       10.81487
H         15.13259      -10.82730       10.80351
H         13.69433      -10.83995       11.84922
H         14.91720       -9.56350       12.04396
