54

C          1.43956        0.53758        0.62734
C          2.88524        0.06074        0.46726
C          3.19495       -0.42156       -0.95557
C          4.63841       -0.91662       -1.08339
N          4.94721       -1.40981       -2.43891
C          4.71079       -2.70200       -2.88342
C          5.08168       -2.77353       -4.20024
N          5.52872       -1.49941       -4.51436
C          5.43921       -0.67001       -3.45121
C          5.81988        0.77115       -3.43629
C          6.98943        1.09695       -2.51778
C          6.92670        2.21457       -1.67559
C          8.01301        2.55764       -0.87220
C          9.19218        1.79457       -0.87950
C          9.23832        0.66874       -1.71560
C          8.15532        0.32229       -2.52463
C         10.36574        2.18134       -0.01946
C          5.05445       -3.90974       -5.17886
C          3.82295       -4.78306       -5.01957
C          3.94963       -6.03756       -4.41014
C          2.83916       -6.86457       -4.23072
C          1.58646       -6.43415       -4.66880
C          1.45585       -5.18612       -5.28144
C          2.55741       -4.33989       -5.46601
C          2.37338       -3.00148       -6.13846
H          1.24627        0.86625        1.65627
H          0.72503       -0.26538        0.39594
H          1.21827        1.38397       -0.03873
H          3.08532       -0.75745        1.17861
H          3.57849        0.87482        0.73603
H          3.02136        0.39637       -1.67473
H          2.50548       -1.23483       -1.23570
H          4.83317       -1.75022       -0.39511
H          5.36252       -0.12452       -0.85064
H          4.29140       -3.46426       -2.23775
H          5.86921       -1.21058       -5.42724
H          4.94356        1.37086       -3.14478
H          6.05144        1.06549       -4.47304
H          6.02514        2.83130       -1.65560
H          7.94663        3.43845       -0.23056
H         10.14141        0.05625       -1.74016
H          8.23310       -0.55517       -3.17164
H         10.69630        3.20584       -0.24291
H         11.21849        1.50916       -0.17174
H         10.09993        2.15601        1.04742
H          5.95915       -4.52278       -5.04302
H          5.11350       -3.49800       -6.19954
H          4.93542       -6.37641       -4.08307
H          2.95597       -7.84114       -3.76048
H          0.71089       -7.07135       -4.54247
H          0.47543       -4.85894       -5.63303
H          1.33338       -2.86439       -6.45656
H          3.00492       -2.90136       -7.03545
H          2.62339       -2.16326       -5.46828
