76

C          0.57378       -0.16842       -0.19714
C          2.08903       -0.19495        0.01788
C          2.71188        1.20014        0.14518
C          4.21885        1.17872        0.41849
C          4.84668        2.57238        0.52763
C          6.34121        2.54635        0.86493
C          6.97656        3.93740        0.96534
C          8.45121        3.90529        1.38055
C          9.09935        5.29089        1.47570
C         10.53372        5.25231        2.01312
C         11.19622        6.63074        2.11067
C         12.60532        6.58235        2.71062
C         13.26601        7.95987        2.84206
C         14.67419        7.87739        3.44267
C         15.46400        9.18922        3.56650
C         14.79859       10.26376        4.46661
S         14.02211       11.47688        3.28305
C         14.99858       10.92016        2.01904
N         15.69886        9.83409        2.23849
C         16.66390        9.29677        1.26695
C         16.06633        8.67754       -0.06522
N         15.56169        7.31902        0.03618
N         15.01586        9.58760       -0.56013
N         17.22297        8.60312       -0.93056
C         15.72748       11.04335        5.41256
C         15.92980       10.45341        6.83230
C         16.94813        9.31929        6.96445
O         16.54182        8.19609        6.17053
O         16.29038       11.49911        7.73088
H          0.16183       -1.18248       -0.29169
H          0.30765        0.38463       -1.11056
H          0.06014        0.32075        0.64404
H          2.57159       -0.73167       -0.81671
H          2.32178       -0.77927        0.92468
H          2.20356        1.75209        0.95581
H          2.51303        1.77310       -0.77795
H          4.72802        0.61141       -0.38075
H          4.40982        0.61951        1.35162
H          4.31138        3.15341        1.29944
H          4.69286        3.11785       -0.42012
H          6.87890        1.95330        0.10436
H          6.48622        2.01189        1.82030
H          6.40941        4.54471        1.69284
H          6.87675        4.45702       -0.00380
H          9.02080        3.28402        0.66714
H          8.53866        3.39741        2.35733
H          8.48591        5.93544        2.12981
H          9.08853        5.77182        0.48195
H         11.14887        4.59632        1.37248
H         10.53141        4.78183        3.01163
H         10.56383        7.29727        2.72281
H         11.23716        7.09121        1.10730
H         13.24408        5.92199        2.09610
H         12.56351        6.10876        3.70606
H         12.62149        8.60583        3.46080
H         13.29403        8.44610        1.84966
H         15.28397        7.15990        2.87019
H         14.62877        7.46876        4.46364
H         16.44865        8.95042        3.99082
H         13.96628        9.81844        5.02807
H         15.04793       11.41677        1.04882
H         17.25924        8.53282        1.77770
H         17.33779       10.11582        0.98445
H         14.70299        7.24780        0.57671
H         16.25704        6.67470        0.41386
H         14.09204        9.30231       -0.22321
H         14.97383        9.50789       -1.57733
H         17.01541        8.02867       -1.74779
H         17.55391        9.52019       -1.22766
H         15.28521       12.03468        5.59188
H         16.69916       11.22243        4.92040
H         14.95456       10.09009        7.19767
H         17.00926        9.05055        8.02977
H         17.94574        9.68207        6.64364
H         16.96760        7.40153        6.52537
H         17.20455       11.77744        7.55178
