50

C          1.17329        1.29050        0.90647
C          2.31937        0.70613        0.07509
C          3.55561        1.61606        0.13474
C          4.82779        1.31546       -0.66997
N          5.63509        0.15369       -0.05472
C          5.20176       -1.25740       -0.41769
C          5.20275       -1.44637       -1.93539
C          4.29964       -0.37397       -2.57812
C          4.79427        1.04343       -2.19032
C          4.02030        2.09551       -2.96992
O          2.92333        2.51445       -2.68842
C          4.70359        2.62362       -4.28819
C          5.30518        4.07592       -4.19351
C          6.30366        4.36300       -3.01343
C          7.57368        3.45169       -2.94176
O          7.59488        2.46142       -2.24738
O          8.60832        3.84032       -3.68264
F          6.70115        5.66402       -3.14121
F          5.61739        4.23747       -1.84151
F          5.97520        4.32343       -5.35518
F          4.28516        4.95305       -4.07821
F          5.72290        1.78475       -4.67559
F          3.77760        2.64097       -5.27305
C          6.63899       -1.50865       -2.50192
C          6.72871       -1.79483       -4.00653
C          8.17431       -1.93682       -4.48837
H          0.29195        0.63785        0.87256
H          0.87326        2.27584        0.52301
H          1.45814        1.41229        1.96162
H          1.98686        0.59984       -0.96694
H          2.54754       -0.30671        0.44447
H          3.86581        1.74403        1.18927
H          3.24891        2.62268       -0.18690
H          5.49958        2.17258       -0.52067
H          5.61804        0.26495        0.96731
H          6.61498        0.27513       -0.35017
H          4.20553       -1.39935        0.01530
H          5.90598       -1.93519        0.08368
H          4.73081       -2.42681       -2.11264
H          3.25601       -0.51501       -2.26915
H          4.32073       -0.47883       -3.67032
H          5.83690        1.11599       -2.52378
H          8.43386        4.69454       -4.12622
H          7.18154       -2.29955       -1.95646
H          7.19432       -0.57314       -2.29840
H          6.24003       -0.98774       -4.57426
H          6.16514       -2.71549       -4.23228
H          8.74951       -1.01759       -4.30446
H          8.21149       -2.14033       -5.56597
H          8.69011       -2.76214       -3.97676
