78

C          1.22481        0.75216        0.28469
C          2.52995       -0.04756        0.30932
C          3.16385       -0.21003       -1.07654
C          4.45500       -1.03527       -1.07554
C          5.09865       -1.14584       -2.46119
C          6.37564       -1.99360       -2.48596
C          7.03447       -2.01559       -3.87150
C          8.26917       -2.89347       -3.90735
O          8.87347       -2.74423       -5.24472
C          9.99110       -3.41401       -5.49092
O         10.55474       -4.15810       -4.68999
C         10.51055       -3.15723       -6.89705
C         12.04541       -3.07764       -6.94916
N         12.64785       -4.35593       -6.39004
C         12.57445       -5.59840       -7.26879
C         13.16157       -5.24938       -8.63915
C         12.54035       -3.99008       -9.25645
C         12.65833       -2.77222       -8.32749
C         12.08962       -1.47114       -8.92141
C         12.92228       -0.88230      -10.06599
C         12.33021        0.42243      -10.60866
C         13.12994        1.01316      -11.77223
C         12.52199        2.30455      -12.32372
N         13.28026        2.77320      -13.48782
C         13.26015       -6.77846       -6.53658
C         12.68522       -7.01208       -5.13301
O         13.10557       -5.93959       -4.27148
C         13.16919       -8.07985       -7.36805
C         14.10046       -9.19933       -6.88855
H          0.79212        0.84683        1.28999
H          0.47192        0.27007       -0.35697
H          1.38623        1.76900       -0.10354
H          2.34424       -1.04479        0.74320
H          3.25200        0.44451        0.98311
H          3.36885        0.78873       -1.50135
H          2.43288       -0.68121       -1.75745
H          4.24224       -2.04644       -0.68656
H          5.17801       -0.58609       -0.37180
H          5.32870       -0.13327       -2.83643
H          4.36830       -1.57254       -3.17055
H          6.13950       -3.02271       -2.16494
H          7.09221       -1.59895       -1.74501
H          7.31639       -0.99095       -4.16270
H          6.31439       -2.37162       -4.62526
H          8.04028       -3.95811       -3.75486
H          9.02384       -2.59206       -3.16638
H         10.09076       -2.21556       -7.26738
H         10.11793       -3.94935       -7.55410
H         12.36410       -2.29785       -6.23882
H         12.16297       -4.54843       -5.47636
H         13.63480       -4.18786       -6.15656
H         11.49871       -5.81864       -7.36495
H         13.01270       -6.09935       -9.31565
H         14.25413       -5.12100       -8.53998
H         11.48220       -4.17428       -9.50842
H         13.04212       -3.77436      -10.20889
H         13.73712       -2.60011       -8.14343
H         12.01318       -0.71440       -8.12047
H         11.06032       -1.64448       -9.27858
H         13.00257       -1.60854      -10.89152
H         13.95287       -0.70274       -9.71375
H         12.26272        1.16031       -9.79016
H         11.29215        0.23863      -10.93706
H         13.20128        0.28486      -12.59603
H         14.16630        1.21025      -11.44474
H         12.44382        3.04851      -11.50320
H         11.49167        2.10295      -12.65922
H         14.20152        3.11234      -13.20602
H         12.80802        3.55925      -13.93422
H         14.33051       -6.52451       -6.41440
H         13.05252       -7.97248       -4.74306
H         11.58077       -7.06544       -5.18011
H         12.73648       -6.08509       -3.38645
H         13.41704       -7.85951       -8.41484
H         12.12365       -8.43300       -7.37295
H         15.14803       -8.86563       -6.87502
H         14.03667      -10.06005       -7.56604
H         13.85214       -9.56332       -5.88312
