41

C          3.56593       -1.05857        1.52250
C          3.06780       -0.40177        0.25548
O          3.47249       -1.18300       -0.94833
C          4.66252       -0.91159       -1.43431
O          5.48221       -0.10535       -1.09314
N          4.88302       -1.69092       -2.73354
C          3.92662       -2.79066       -3.07996
C          3.18963       -2.29184       -4.34599
O          3.51562       -1.16509       -4.74418
C          2.19648       -3.13117       -5.01060
C          1.59996       -2.65644       -6.19940
C          0.66299       -3.43818       -6.86424
C          0.30865       -4.69367       -6.35160
C          0.89123       -5.17067       -5.17127
C          1.83328       -4.39554       -4.50075
C          6.34523       -2.02309       -2.92347
C          6.76628       -3.22071       -2.05169
C          8.30749       -3.25507       -1.85445
N          8.64118       -2.38327       -0.72347
O          6.13307       -3.14246       -0.78892
H          3.18154       -0.48870        2.37996
H          4.66115       -1.05156        1.57770
H          3.20298       -2.09007        1.61015
H          3.45487        0.61630        0.12599
H          1.97487       -0.40010        0.18204
H          4.60506       -0.99995       -3.52186
H          3.23988       -2.96864       -2.24723
H          4.48037       -3.71439       -3.27928
H          1.88907       -1.67740       -6.58123
H          0.20374       -3.07442       -7.78344
H         -0.42692       -5.30460       -6.87621
H          0.60814       -6.14690       -4.77808
H          2.27901       -4.77691       -3.58061
H          6.88366       -1.10734       -2.65088
H          6.49381       -2.21900       -3.99436
H          6.45389       -4.15963       -2.53731
H          8.82743       -3.00060       -2.79298
H          8.58771       -4.28289       -1.59286
H          8.89767       -1.43841       -1.00536
H          9.40636       -2.75741       -0.16733
H          6.84063       -2.72424       -0.22469
