73

C          0.52397       -0.24782       -0.10579
C          1.91954        0.35635       -0.27798
C          2.54219        0.83014        1.04021
C          3.92718        1.46217        0.87068
C          4.58287        1.87071        2.19360
C          5.96244        2.51220        2.00929
C          6.68158        2.79249        3.33519
C          8.04982        3.40537        3.10451
O          8.73316        3.51110        4.39968
C         10.06941        3.45711        4.38961
O         10.75231        3.37533        3.37765
C         10.61763        3.47591        5.81154
C         12.14468        3.37469        5.95202
C         12.77111        2.23920        5.09748
C         13.36364        2.97146        3.93889
N         13.49162        4.24641        4.21549
C         12.91292        4.65895        5.50619
C         14.02635        5.13407        6.45897
C         13.53962        5.94331        7.70110
N         12.83168        7.12308        7.20306
N         12.64937        5.11845        8.52500
N         14.65564        6.30304        8.58170
C         13.80181        2.43248        2.70009
N         14.39674        3.08033        1.71913
N         14.59387        2.20276        0.70920
C         14.09545        1.03463        1.12300
O         13.58286        1.10954        2.38700
S         14.07472       -0.40497        0.19719
C         13.17024       -1.56483        1.29500
C         12.99604       -2.88867        0.54697
C         12.26235       -3.92653        1.40913
C         12.06116       -5.25882        0.68202
H          0.11179       -0.58994       -1.06485
H         -0.17946        0.48670        0.31411
H          0.54269       -1.11210        0.57495
H          1.87066        1.20418       -0.98221
H          2.58835       -0.38590       -0.74645
H          2.61264       -0.02483        1.73608
H          1.86565        1.55640        1.52418
H          3.84823        2.34457        0.21158
H          4.58971        0.75190        0.34446
H          4.67907        0.98115        2.84079
H          3.92252        2.56926        2.73581
H          5.85844        3.44829        1.43398
H          6.59056        1.84557        1.39204
H          6.80444        1.85078        3.89495
H          6.07470        3.45982        3.96745
H          7.98948        4.41947        2.68170
H          8.67215        2.79286        2.43804
H         10.13891        2.64838        6.35829
H         10.24857        4.39152        6.30014
H         12.35907        3.20974        7.01496
H         12.06133        1.46744        4.77828
H         13.58573        1.72297        5.63368
H         13.88968        4.90189        3.54193
H         12.22809        5.50168        5.32124
H         14.72022        5.77728        5.89259
H         14.60639        4.26961        6.81488
H         12.55600        7.70776        7.99534
H         13.43157        7.70003        6.60780
H         11.68183        5.26749        8.23436
H         12.71968        5.44941        9.48965
H         15.33082        6.90057        8.10429
H         15.15356        5.47292        8.91158
H         12.20064       -1.11236        1.54427
H         13.75558       -1.69543        2.21552
H         13.98259       -3.28379        0.25395
H         12.43491       -2.71657       -0.38594
H         11.28417       -3.51913        1.71469
H         12.83136       -4.09249        2.33897
H         11.44888       -5.13400       -0.22280
H         11.55481       -5.98684        1.32878
H         13.02204       -5.69695        0.37732
