83

C          0.20633        2.40961      -11.86626
C          1.69994        2.08622      -11.78661
C          2.35904        2.59276      -10.49947
C          3.86055        2.30094      -10.42018
C          4.51918        2.81897       -9.13760
C          6.03119        2.57824       -9.08159
C          6.69534        3.12988       -7.81569
C          8.21739        2.95264       -7.79332
C          8.89486        3.57215       -6.56632
C         10.42376        3.46888       -6.59759
C         11.09918        4.21778       -5.44262
C         12.61978        4.24664       -5.50541
O         13.02208        4.85987       -6.74862
C         14.32595        5.38744       -6.75523
C         14.57314        6.02361       -8.12264
C         13.49448        7.08306       -8.41719
O         13.62982        7.68291       -9.69667
C         13.51568        6.68788      -10.70542
C         14.69938        5.72072      -10.63612
N         14.58711        5.00807       -9.26966
C         15.56373        3.85797       -9.12983
C         14.86900        2.63917       -8.48504
O         13.53542        2.52164       -8.94778
C         13.35763        1.79191      -10.18132
C         11.96983        2.10082      -10.69235
O         11.92178        3.49739      -11.03407
C         16.03984        6.45997      -10.84971
C         17.22485        5.73422      -11.51397
C         17.00939        5.32519      -12.98875
S         16.86258        3.54121      -13.16207
O         18.13415        2.91546      -12.87596
O         15.66385        3.12232      -12.46005
O         16.54085        3.38926      -14.73724
H         -0.23938        2.03266      -12.79704
H          0.03196        3.49528      -11.82931
H         -0.34404        1.95836      -11.02740
H          2.21919        2.52475      -12.65573
H          1.84706        0.99571      -11.86436
H          1.85125        2.14143       -9.62906
H          2.19537        3.68157      -10.41310
H          4.36308        2.75224      -11.29432
H          4.02694        1.21255      -10.50387
H          4.04016        2.34539       -8.26316
H          4.32201        3.90112       -9.04080
H          6.50141        3.04177       -9.96781
H          6.23401        1.49581       -9.16178
H          6.25604        2.64330       -6.92800
H          6.45652        4.20376       -7.72121
H          8.64350        3.41107       -8.70505
H          8.46356        1.87757       -7.84878
H          8.50667        3.09697       -5.64933
H          8.60806        4.63642       -6.49960
H         10.79066        3.87561       -7.55385
H         10.72888        2.40823       -6.57921
H         10.81605        3.76471       -4.47842
H         10.73395        5.25780       -5.41427
H         13.04736        3.22743       -5.45192
H         13.02665        4.83303       -4.66226
H         15.09448        4.62591       -6.51823
H         14.44433        6.19104       -5.99967
H         15.57015        6.48448       -8.11643
H         13.58643        7.88608       -7.67350
H         12.49682        6.62192       -8.31074
H         13.51738        7.20313      -11.67468
H         12.56313        6.13305      -10.60618
H         14.55611        4.91926      -11.37513
H         13.65836        4.52158       -9.27296
H         16.43889        4.18642       -8.55504
H         15.87601        3.59986      -10.14729
H         14.80529        2.73929       -7.39408
H         15.47204        1.74316       -8.70809
H         13.45278        0.71011       -9.98655
H         14.11031        2.08615      -10.93023
H         11.22440        1.86483       -9.91386
H         11.77369        1.46852      -11.57481
H         11.03107        3.69230      -11.36351
H         16.39246        6.89220       -9.90367
H         15.80118        7.34042      -11.46583
H         17.56158        4.86754      -10.92761
H         18.07221        6.43313      -11.48958
H         17.86073        5.60885      -13.62073
H         16.09792        5.75268      -13.42941
H         17.33565        3.02674      -15.17632
