48

C          1.42622        1.82008       -0.12025
C          2.69187        1.39979       -0.18275
N          3.33407        0.71140        0.86767
C          4.52063        0.07817        0.78086
N          5.18652       -0.10945       -0.37956
C          6.39285       -0.92478       -0.15000
C          6.44283       -1.08261        1.39934
N          5.19313       -0.39115        1.83116
C          4.82833       -0.26383        3.24183
C          3.79058       -1.30230        3.72955
C          3.74660       -1.34161        5.23897
C          2.82471       -0.57486        5.96399
C          2.83061       -0.59090        7.36138
C          3.76288       -1.37293        8.04753
C          4.68563       -2.14287        7.33300
C          4.67760       -2.12718        5.93729
C          6.56483       -2.48575        1.94103
C          7.60072       -2.78125        2.83327
C          7.73688       -4.05047        3.39839
C          6.81305       -5.04110        3.06776
C          5.76597       -4.77717        2.17917
C          5.63790       -3.50436        1.61168
O          4.63629       -3.14611        0.74697
C          3.65762       -4.13484        0.39517
H          1.00407        2.38730       -0.94571
H          0.78442        1.63190        0.74156
H          3.33039        1.60999       -1.04112
H          2.86515        0.68904        1.76901
H          4.67298       -0.19022       -1.25088
H          7.28168       -0.40536       -0.52757
H          6.29884       -1.89551       -0.65043
H          7.28692       -0.49978        1.80018
H          4.48394        0.76483        3.43679
H          5.75727       -0.39114        3.81387
H          4.07489       -2.28755        3.33840
H          2.79272       -1.07198        3.32209
H          2.08534        0.03114        5.43440
H          2.10312        0.00376        7.91448
H          3.76584       -1.38852        9.13771
H          5.40919       -2.76173        7.86451
H          5.39418       -2.73763        5.38065
H          8.31455       -1.99374        3.08590
H          8.55454       -4.26121        4.08637
H          6.90087       -6.03798        3.50049
H          5.05752       -5.56690        1.93689
H          4.12147       -4.99650       -0.10759
H          2.97122       -3.63657       -0.29714
H          3.09999       -4.47604        1.28042
