78

C          5.01798       -4.45683       -1.31090
C          5.57573       -3.05569       -1.05534
C          5.73592       -2.73930        0.43479
C          6.30862       -1.34394        0.70309
C          6.50475       -1.05974        2.19579
C          7.11870        0.31849        2.44822
N          7.44254        0.55176        3.86588
C          8.70554       -0.00116        4.40182
C          8.80726        0.60265        5.81475
N          7.90651        1.76998        5.67523
C          7.06238        1.59237        4.62719
N          6.01460        2.40512        4.42988
C          4.76199        2.14771        3.69320
C          3.58109        2.66856        4.51925
C          2.25670        2.53265        3.76196
S          0.93219        3.13218        4.85463
C         -0.48451        3.06014        3.74664
S         -0.39090        2.49395        2.19400
N         -1.61745        3.54524        4.34594
C         -2.82598        3.79378        3.59158
C         -4.00656        3.14166        3.96023
C         -5.19010        3.41658        3.27066
C         -5.19433        4.33879        2.22126
C         -4.01011        4.99132        1.86228
C         -2.82372        4.72297        2.54526
C         -1.67206        3.85370        5.75617
C         -1.84392        5.18204        6.16686
C         -1.93161        5.47797        7.52778
C         -1.84993        4.45430        8.47761
C         -1.68782        3.12902        8.06373
C         -1.60429        2.82310        6.70348
C         10.21924        0.97204        6.25957
C         10.27492        1.48407        7.70555
C         11.67468        1.92883        8.13666
C         12.11358        3.21982        7.45050
O         11.40659        3.87428        6.71851
O         13.38244        3.63057        7.71486
H          4.92319       -4.65942       -2.38565
H          4.02208       -4.57760       -0.86053
H          5.67193       -5.23039       -0.88279
H          4.91536       -2.30338       -1.51776
H          6.55385       -2.95057       -1.55359
H          6.39274       -3.49634        0.89787
H          4.75777       -2.83677        0.93693
H          5.64246       -0.58162        0.26363
H          7.27640       -1.24099        0.18232
H          7.15750       -1.83518        2.62932
H          5.54127       -1.13492        2.72683
H          6.45552        1.11829        2.09872
H          8.06079        0.42273        1.88268
H          9.54008        0.33200        3.76029
H          8.68305       -1.09714        4.41257
H          8.35833       -0.09379        6.54624
H          7.57682        2.25008        6.50692
H          5.98362        3.21532        5.04357
H          4.66677        1.06648        3.52902
H          4.79144        2.64599        2.71199
H          3.75278        3.73119        4.76311
H          3.53787        2.11995        5.47330
H          2.04572        1.48982        3.48611
H          2.24703        3.12706        2.83780
H         -3.99762        2.42578        4.78264
H         -6.11013        2.90578        3.55664
H         -6.11952        4.55194        1.68495
H         -4.00969        5.71602        1.04736
H         -1.89577        5.22230        2.26794
H         -1.91558        5.97178        5.41837
H         -2.06654        6.51184        7.84726
H         -1.92382        4.68907        9.54004
H         -1.64069        2.32621        8.80047
H         -1.49000        1.79167        6.36885
H         10.61958        1.73368        5.57417
H         10.84906        0.07189        6.16400
H          9.92199        0.69802        8.39137
H          9.60349        2.34932        7.82268
H         12.42069        1.14068        7.93847
H         11.69851        2.10471        9.22480
H         13.82344        3.01334        8.32573
