79

C          0.52137       -9.76469       -7.64268
C          2.04742       -9.71781       -7.54120
C          2.59765       -8.30055       -7.35312
C          4.12547       -8.24128       -7.26843
C          4.67888       -6.82216       -7.10789
C          6.20852       -6.76444       -7.06286
C          6.77141       -5.34430       -6.94979
C          8.30194       -5.29773       -6.95547
C          8.88528       -3.88221       -6.90414
C         10.41625       -3.86608       -6.94936
C         11.02386       -2.45841       -6.96797
C         12.55980       -2.43328       -6.94930
C         13.20664       -3.03351       -8.20357
C         14.73876       -3.05817       -8.13847
C         15.37341       -3.62333       -9.40483
N         15.01653       -5.04206       -9.66036
C         16.02955       -5.64655      -10.29594
N         15.97722       -6.88168      -10.81682
C         14.90225       -7.86401      -10.61760
C         13.59009       -7.54793      -11.36512
C         12.68961       -8.77826      -11.48540
O         12.21711       -9.04726      -10.15937
O         12.86043       -6.50113      -10.69842
N         17.12045       -4.85600      -10.37134
C         16.92838       -3.69300       -9.47488
C         17.64504       -3.91464       -8.12827
C         19.11085       -4.30302       -8.28846
O         19.54844       -4.95783       -9.23009
O         19.84444       -3.87458       -7.26098
C         21.26491       -4.26735       -7.23749
C         21.44539       -5.60430       -6.54601
H          0.15669      -10.79214       -7.77784
H          0.16138       -9.16856       -8.49441
H          0.04963       -9.36058       -6.73477
H          2.49139      -10.15979       -8.44948
H          2.38191      -10.35077       -6.70195
H          2.16254       -7.85911       -6.43939
H          2.25467       -7.66461       -8.18834
H          4.55621       -8.69714       -8.17785
H          4.46943       -8.86581       -6.42515
H          4.26787       -6.36987       -6.18868
H          4.31700       -6.19503       -7.94146
H          6.61372       -7.24119       -7.97364
H          6.57337       -7.37166       -6.21575
H          6.39297       -4.87038       -6.02778
H          6.38625       -4.73334       -7.78480
H          8.67202       -5.80512       -7.86525
H          8.68906       -5.88407       -6.10351
H          8.53895       -3.37130       -5.98961
H          8.48887       -3.29378       -7.74982
H         10.74039       -4.42809       -7.84296
H         10.81245       -4.42051       -6.07989
H         10.65404       -1.89769       -6.09482
H         10.65870       -1.91184       -7.85479
H         12.91953       -2.97897       -6.05959
H         12.90628       -1.39338       -6.83256
H         12.88449       -2.46094       -9.09078
H         12.83345       -4.06091       -8.34492
H         15.06140       -3.64129       -7.26170
H         15.11768       -2.03232       -7.99774
H         15.02692       -3.02871      -10.26972
H         14.05466       -5.35876       -9.86177
H         16.82002       -7.20388      -11.27919
H         14.69382       -7.97748       -9.54282
H         15.30369       -8.82037      -10.97668
H         13.82913       -7.18096      -12.37503
H         13.25295       -9.63309      -11.89776
H         11.85489       -8.54406      -12.16549
H         11.47043       -9.66367      -10.20125
H         12.26836       -6.96663      -10.07264
H         18.07689       -5.24114      -10.35026
H         17.32800       -2.79190       -9.95864
H         17.16415       -4.73578       -7.57050
H         17.57220       -3.01895       -7.49903
H         21.74373       -3.45093       -6.68510
H         21.63305       -4.28294       -8.27042
H         21.03894       -5.58274       -5.52676
H         22.51827       -5.83141       -6.47878
H         20.96532       -6.41453       -7.10946
