77

C          9.20833       -2.36885        3.61740
C          7.86132       -1.67379        3.84323
C          8.01167       -0.16524        3.88410
O          6.70021        0.42405        4.14250
C          6.67342        1.78764        4.14564
S          6.59097        2.45392        2.35588
C          4.85173        2.05608        1.97672
C          4.47986        2.57752        0.57568
O          4.57670        3.79261        0.37385
N          4.01496        1.68388       -0.33264
C          3.46077        2.19833       -1.60073
C          1.92750        2.21825       -1.63880
C          1.27651        3.15498       -0.61444
C         -0.24554        3.22381       -0.75807
C          3.92702        0.23988       -0.10593
C          6.59719        4.26381        2.62907
C          8.00797        4.81200        2.84555
C          8.99294        4.60367        1.68621
S          8.40009        5.27042        0.10902
C          8.34980        3.80823       -0.95807
S          8.79769        2.27811       -0.45062
N          7.95137        4.09862       -2.21502
C          7.44930        5.42666       -2.60918
C          5.93512        5.60061       -2.41568
C          5.48822        7.05618       -2.58526
C          3.97585        7.22634       -2.41730
C          7.97287        3.05257       -3.25337
C          6.70724        2.18985       -3.31606
C          6.85255        1.04078       -4.31855
C          5.61428        0.14464       -4.38802
H          9.07739       -3.45696        3.58104
H          9.91718       -2.14878        4.42796
H          9.67237       -2.05889        2.67025
H          7.40924       -2.01125        4.78824
H          7.15645       -1.93931        3.04003
H          8.39537        0.22464        2.92369
H          8.69490        0.15514        4.68968
H          7.57431        2.27232        4.55981
H          5.76295        2.14542        4.64634
H          4.20651        2.56508        2.70662
H          4.78776        0.97173        2.12643
H          3.85353        1.56420       -2.40672
H          3.86107        3.20995       -1.73258
H          1.52978        1.19532       -1.52170
H          1.64275        2.53065       -2.65716
H          1.71085        4.16214       -0.72025
H          1.53208        2.82351        0.40659
H         -0.53565        3.58993       -1.75354
H         -0.68609        3.90175       -0.01532
H         -0.70910        2.23567       -0.62194
H          4.86029       -0.15911        0.31122
H          3.77574       -0.24542       -1.07673
H          3.08210       -0.03648        0.54287
H          5.93014        4.47407        3.47749
H          6.13577        4.64928        1.70732
H          8.46071        4.40371        3.76409
H          7.87276        5.88772        3.04138
H          9.20211        3.53521        1.48343
H          9.94492        5.09899        1.91521
H          7.72740        5.57557       -3.66217
H          7.99552        6.19277       -2.03846
H          5.65445        5.23927       -1.41447
H          5.39883        4.96501       -3.13856
H          5.79495        7.42916       -3.57681
H          6.01682        7.68298       -1.84784
H          3.42330        6.64922       -3.17377
H          3.67690        8.27762       -2.52097
H          3.64480        6.87935       -1.42717
H          8.84423        2.41426       -3.05230
H          8.13504        3.56566       -4.21258
H          5.84386        2.81535       -3.59043
H          6.51060        1.78716       -2.30995
H          7.73224        0.43453       -4.04635
H          7.06430        1.45027       -5.32026
H          5.40144       -0.31844       -3.41179
H          5.74724       -0.66873       -5.11346
H          4.72229        0.71260       -4.69360
