65

C          1.02091        2.22476        1.35434
C          2.53647        2.36744        1.19534
C          2.96698        2.69902       -0.23802
C          4.48192        2.84996       -0.40534
C          4.91417        3.16633       -1.84103
C          6.43002        3.31933       -1.99696
C          6.87737        3.60275       -3.43532
C          8.40013        3.73678       -3.56034
C          8.86003        3.94524       -4.99186
O         10.30226        4.01215       -4.99071
C         10.86342        4.05656       -6.28878
C         12.35217        4.04506       -6.06802
N         12.98951        2.91520       -6.36488
N         14.29069        2.91047       -6.10134
C         15.05250        3.88432       -5.56171
C         14.38847        5.08951       -5.21910
C         13.02541        5.13928       -5.49124
C         15.06687        6.22715       -4.51504
C         14.92554        6.06610       -2.97761
N         15.54721        4.81878       -2.52512
C         16.52162        3.58618       -5.46384
C         17.22575        3.55045       -6.84250
C         17.12995        4.88360       -7.59325
C         17.80735        4.81672       -8.96481
S         17.45901        6.35430       -9.86006
O         16.04276        6.40755      -10.14867
O         18.12961        7.44828       -9.19684
Cl        18.45124        5.98655      -11.64049
H          0.74529        1.98404        2.39019
H          0.62502        1.42460        0.71136
H          0.50102        3.15489        1.08054
H          3.03098        1.43445        1.51532
H          2.90679        3.15291        1.87597
H          2.46888        3.63011       -0.56147
H          2.60081        1.91029       -0.91890
H          4.97989        1.92203       -0.07251
H          4.84611        3.64521        0.26892
H          4.41527        4.09146       -2.17900
H          4.55648        2.36735       -2.51399
H          6.92701        2.40029       -1.63972
H          6.78554        4.13045       -1.33762
H          6.39023        4.52381       -3.79870
H          6.52318        2.79002       -4.09278
H          8.88670        2.82905       -3.16829
H          8.75566        4.57791       -2.94332
H          8.44909        4.87868       -5.42107
H          8.53880        3.10578       -5.63660
H         10.56832        4.97527       -6.83608
H         10.57543        3.18203       -6.89891
H         14.73616        2.02247       -6.34572
H         12.45161        6.03486       -5.24523
H         14.60163        7.17438       -4.82160
H         16.12926        6.29158       -4.78594
H         13.85546        6.03301       -2.72588
H         15.33598        6.97282       -2.50235
H         15.09799        4.47221       -1.67876
H         16.53048        4.95991       -2.29237
H         16.64954        2.61875       -4.95388
H         16.99149        4.32980       -4.81367
H         16.80426        2.74157       -7.46330
H         18.27792        3.28020       -6.66969
H         17.59252        5.68515       -6.99737
H         16.07305        5.16006       -7.73712
H         17.41051        4.00935       -9.59525
H         18.90031        4.73281       -8.90141
