50

C          1.77026        6.16774        4.55908
C          3.21552        5.70739        4.78513
C          3.90443        5.42519        3.45988
O          5.31824        5.03197        3.65777
C          5.56916        3.73760        3.79052
O          4.76196        2.82197        3.76667
C          7.06704        3.47868        3.97901
P          7.36551        1.68360        3.90891
C          6.86311        0.95152        2.30271
C          7.02382       -0.48805        2.37465
C          7.15430       -1.68502        2.48233
C          9.09958        1.28898        4.26386
C          9.62913        1.78979        5.62161
C          8.92804        1.19957        6.85470
C          9.57060        1.65388        8.17527
C          9.31024        3.12963        8.50959
C         10.23390        3.63235        9.61723
O          9.99569        5.02345        9.93344
C         10.54907        5.92939        9.07031
O         11.16453        5.61308        8.06620
C         10.28821        7.31029        9.54198
C         10.76960        8.36600        8.87587
H          1.28183        6.38398        5.51706
H          1.17593        5.39633        4.04946
H          1.72753        7.08287        3.95153
H          3.22548        4.79588        5.40223
H          3.78117        6.47876        5.32917
H          3.97930        6.32361        2.83531
H          3.40613        4.62277        2.90036
H          7.39960        3.84750        4.96254
H          7.67445        3.99570        3.22188
H          6.53909        1.08356        4.87910
H          7.48208        1.40422        1.51064
H          5.81385        1.24288        2.13954
H          7.25016       -2.75072        2.54235
H          9.68390        1.70611        3.42772
H          9.16282        0.19130        4.18271
H          9.61009        2.89003        5.64744
H         10.69571        1.51863        5.65404
H          8.95659        0.09954        6.79176
H          7.85784        1.47692        6.87035
H         10.65734        1.47122        8.11865
H          9.19883        1.01690        8.99202
H          8.26086        3.26982        8.81501
H          9.48404        3.76180        7.62660
H         11.28621        3.51087        9.32052
H         10.05970        3.10143       10.56245
H          9.70432        7.41535       10.45709
H         11.36105        8.22564        7.96957
H         10.59476        9.38451        9.22044
