52

C          1.86271        5.04499        2.81127
C          2.92034        5.06077        1.70499
C          3.91045        3.89403        1.79558
C          4.96330        3.89873        0.68232
C          5.98449        2.76018        0.80063
C          6.95645        2.65033       -0.36277
O          7.73153        3.86549       -0.44626
C          8.74317        3.84296       -1.46275
C          9.44177        5.21122       -1.52856
C          8.42253        6.34545       -1.63289
N          7.73241        6.54629       -0.29736
C          8.66878        6.88291        0.84165
C          9.72180        5.75463        0.96471
C         10.42872        5.50275       -0.37635
C         10.69190        5.89048        2.15601
C          9.99350        5.98054        3.48506
C         10.26284        6.86685        4.44787
C          9.01419        8.38945        0.64603
O          8.30568        9.02207       -0.12393
C         10.09549        9.03574        1.45124
H          1.17487        5.89578        2.71975
H          2.32381        5.09550        3.80860
H          1.25951        4.12646        2.77255
H          3.47758        6.01379        1.74294
H          2.42430        5.03993        0.72001
H          3.35671        2.94028        1.76250
H          4.41411        3.91510        2.77803
H          5.48104        4.87713        0.70340
H          4.46256        3.84412       -0.29994
H          5.45098        1.79812        0.86573
H          6.55355        2.85506        1.74038
H          6.42129        2.50165       -1.31909
H          7.64473        1.79927       -0.22004
H          8.27681        3.61877       -2.44047
H          9.47639        3.04386       -1.24970
H         10.00996        5.21366       -2.47222
H          7.62727        6.12764       -2.35798
H          8.88691        7.30057       -1.90260
H          7.24129        5.64948       -0.09802
H          7.08993        7.34935       -0.39192
H          8.05465        6.86890        1.76123
H          9.11857        4.85675        1.18104
H         11.12091        4.65580       -0.26397
H         11.04890        6.37407       -0.64789
H         11.39768        6.72307        2.02705
H         11.30807        4.97453        2.14382
H          9.22185        5.22248        3.66766
H         11.04517        7.62156        4.33570
H          9.73436        6.85132        5.40070
H         10.01083        8.76148        2.51206
H         10.03527       10.12140        1.32665
H         11.08131        8.68646        1.10785
