62

C          0.86180        0.35434       -0.22549
C          2.39008        0.28715       -0.18437
C          2.92723       -1.14377       -0.07936
C          4.45635       -1.22893       -0.04352
C          4.98252       -2.66408        0.05726
C          6.51122       -2.76454        0.08564
C          7.01774       -4.20712        0.18697
C          8.54501       -4.32886        0.20253
C          9.02642       -5.78044        0.31146
C         10.55617       -5.91357        0.31463
C         10.99075       -7.36108        0.44805
O         12.44535       -7.42821        0.45469
C         12.97179       -8.73666        0.60768
C         14.49981       -8.59932        0.51485
C         15.18297       -9.92895        0.22362
O         16.57200       -9.71344        0.14194
C         17.32406      -10.92186       -0.11337
C         18.79457      -10.56712       -0.17369
C         15.14213       -7.82967        1.71147
O         15.48957       -6.51562        1.23524
C         15.86825       -6.64683       -0.08136
N         14.74260       -7.55942       -0.64998
C         14.93932       -8.04557       -1.92988
C         15.11585       -8.41568       -3.06202
H          0.50500        1.39062       -0.30111
H          0.41954       -0.08456        0.68127
H          0.46237       -0.19905       -1.08844
H          2.76324        0.87804        0.66908
H          2.80526        0.76444       -1.08806
H          2.54924       -1.73624       -0.93133
H          2.51382       -1.62085        0.82684
H          4.83507       -0.63953        0.80994
H          4.86937       -0.75092       -0.94922
H          4.59639       -3.25258       -0.79354
H          4.57037       -3.13907        0.96486
H          6.90127       -2.17865        0.93621
H          6.92535       -2.29387       -0.82325
H          6.61587       -4.79283       -0.65828
H          6.60705       -4.67223        1.10016
H          8.95238       -3.74457        1.04556
H          8.95865       -3.87338       -0.71396
H          8.60807       -6.36565       -0.52526
H          8.61820       -6.22823        1.23366
H         10.98224       -5.33136        1.14697
H         10.96685       -5.49278       -0.61809
H         10.61375       -7.97659       -0.38811
H         10.62470       -7.79859        1.39287
H         12.58782       -9.41409       -0.17888
H         12.70902       -9.16756        1.59015
H         14.78454      -10.36400       -0.71374
H         14.91956      -10.62606        1.04632
H         16.97792      -11.36532       -1.06453
H         17.11866      -11.64630        0.69523
H         18.99696       -9.85516       -0.98466
H         19.38570      -11.47281       -0.36178
H         19.13486      -10.12980        0.77395
H         16.04079       -8.36173        2.05388
H         14.43505       -7.68867        2.53625
H         16.80362       -7.20171       -0.25570
H         15.84300       -5.67533       -0.58876
H         13.83070       -7.02230       -0.58763
H         15.27106       -8.74614       -4.07013
