79

S          3.68713        4.34615       -3.90056
C          4.76259        3.15004       -3.57737
N          4.46326        2.09684       -2.67478
C          3.20604        1.51962       -2.52349
C          3.35602        0.55914       -1.55796
N          4.66019        0.53479       -1.08481
C          5.29573        1.46318       -1.76363
S          6.30425        3.22053       -4.39248
C          7.24509        1.63478       -4.30625
C          6.45822        0.36155       -4.60003
C          7.37765       -0.84944       -4.83737
C          6.71144       -2.23216       -4.67660
C          5.40395       -2.37121       -5.48992
N          4.33913       -2.10489       -4.48092
C          4.79284       -2.18949       -3.27314
C          6.22977       -2.56384       -3.21912
C          7.02116       -2.02009       -2.01819
C          8.40074       -2.67740       -1.90136
C          9.18344       -2.14887       -0.69721
S         10.87625       -2.77260       -0.74971
O         10.86696       -4.20139       -0.51363
O         11.51827       -2.19690       -1.90531
O         11.51168       -2.04617        0.55444
C          2.94496       -1.79615       -4.84170
C          2.79854       -0.45198       -5.59070
C          2.73605       -0.56860       -7.11951
S          2.72762        1.06208       -7.91141
C          4.46606        1.29662       -8.28137
S          5.64847        0.12482       -8.12233
N          4.71323        2.54138       -8.75786
C          3.68487        3.56248       -8.82690
C          3.03517        3.80564      -10.04128
C          2.06712        4.80906      -10.10950
C          1.75820        5.56473       -8.97478
C          2.42072        5.32080       -7.76774
C          3.38910        4.32036       -7.68869
C          6.02762        2.91404       -9.24201
C          6.82545        3.75839       -8.46663
C          8.07808        4.14656       -8.94639
C          8.52367        3.69756      -10.19234
C          7.71265        2.86068      -10.96455
C          6.45925        2.46809      -10.49396
H          2.36078        1.87428       -3.10054
H          2.59211       -0.09410       -1.14472
H          6.32576        1.77236       -1.61632
H          7.78917        1.57938       -3.35309
H          7.99266        1.82108       -5.09445
H          5.83792        0.52394       -5.49500
H          5.78039        0.16865       -3.75845
H          8.25146       -0.80456       -4.16898
H          7.78557       -0.78876       -5.85846
H          7.42931       -2.99395       -5.00533
H          5.24201       -3.38911       -5.87873
H          5.31767       -1.65808       -6.32744
H          4.13675       -2.01911       -2.41782
H          6.21864       -3.67152       -3.11547
H          6.43708       -2.19737       -1.10185
H          7.12217       -0.92823       -2.09353
H          8.99056       -2.49394       -2.81243
H          8.29090       -3.76964       -1.81291
H          8.74920       -2.46645        0.26065
H          9.27073       -1.05298       -0.70434
H         11.65126       -2.73480        1.23323
H          2.38077       -1.78233       -3.90132
H          2.57102       -2.63465       -5.44953
H          3.61672        0.21853       -5.29704
H          1.87769        0.02402       -5.22564
H          1.80790       -1.06037       -7.44420
H          3.59717       -1.10954       -7.54407
H          3.28888        3.21102      -10.91907
H          1.55543        5.00205      -11.05260
H          1.00381        6.34967       -9.03315
H          2.18974        5.91486       -6.88268
H          3.90821        4.12471       -6.74928
H          6.46700        4.10787       -7.49836
H          8.70356        4.80844       -8.34654
H          9.50174        4.00269      -10.56458
H          8.05504        2.51349      -11.93968
H          5.82161        1.80924      -11.08359
