55

Br         1.75951        2.10792        4.67290
C          3.39391        1.75636        3.66016
C          3.17417        0.66276        2.62213
C          4.49128        0.26704        1.91689
P          5.62356       -0.70599        2.95680
C          4.94738       -2.35364        3.36779
C          4.58383       -2.41394        4.86159
O          5.00712       -3.25289        5.61631
O          3.76352       -1.38610        5.15747
C          3.44768       -1.15439        6.57918
C          4.40007       -0.11865        7.15614
C          4.09405        0.19728        8.62697
C          5.02472        1.27037        9.19819
C          7.28618       -0.82987        2.22046
C          8.01973        0.52141        2.07439
P          8.10530        1.48193        3.64674
O          7.81419        0.65253        4.84220
O          9.53792        2.16262        3.74326
C         10.05479        3.14787        2.78832
C         11.37314        3.66014        3.32453
O          7.02807        2.63902        3.32560
C          6.71453        3.61472        4.38475
C          6.04171        4.81026        3.74827
H          4.14254        1.48380        4.41195
H          3.67800        2.70839        3.19912
H          2.47306        1.01596        1.85302
H          2.70801       -0.21222        3.09574
H          5.05306        1.15978        1.59897
H          4.29600       -0.33575        1.01645
H          5.83792       -0.03382        4.17906
H          5.68833       -3.13086        3.14652
H          4.05244       -2.52921        2.75289
H          3.50746       -2.11607        7.10396
H          2.41038       -0.79782        6.56541
H          4.32238        0.80955        6.56521
H          5.43794       -0.47807        7.06105
H          4.18166       -0.72499        9.22341
H          3.04646        0.52723        8.72085
H          6.07798        0.96065        9.13719
H          4.79710        1.46958       10.25353
H          4.92251        2.22044        8.65248
H          7.20109       -1.34302        1.25092
H          7.84058       -1.49204        2.90364
H          7.57710        1.14815        1.28882
H          9.05342        0.30667        1.76660
H          9.31387        3.95346        2.67700
H         10.18348        2.65506        1.81127
H         11.23863        4.14745        4.29849
H         11.79283        4.39594        2.62504
H         12.09560        2.84245        3.43935
H          7.64846        3.89978        4.89172
H          6.06934        3.11524        5.12230
H          6.70207        5.30076        3.02155
H          5.78487        5.54276        4.52554
H          5.11374        4.52494        3.23536
