59

C          7.80383       -2.43493        0.59212
C          8.49015       -1.06791        0.64376
C          7.50604        0.10370        0.73571
C          8.19477        1.47095        0.78329
C          7.21426        2.64732        0.84704
C          7.87933        4.01230        0.90788
O          8.69411        4.23849       -0.30035
C          8.19400        5.05593       -1.23029
O          7.13917        5.64638       -1.21591
C          9.10136        5.14921       -2.46060
S         10.84446        4.69195       -2.13044
C         11.25747        3.40876       -3.47779
C         10.61420        3.63613       -4.86275
C         10.66412        4.97602       -5.63534
C         12.05773        5.40940       -6.11494
C          9.71326        4.85895       -6.83867
C         12.79327        3.32512       -3.52908
O         13.28949        3.32442       -2.19330
C         10.68002        2.13056       -2.83550
C         11.76540        6.21604       -2.51525
C         11.47274        7.20065       -1.38205
O         10.58245        7.03276       -0.57243
O         12.31420        8.23172       -1.44163
C         12.12484        9.26669       -0.42891
H          8.53667       -3.25009        0.52562
H          7.13625       -2.51573       -0.27843
H          7.19513       -2.60976        1.49112
H          9.12379       -0.93845       -0.25147
H          9.17704       -1.03206        1.50606
H          6.87372       -0.01972        1.63179
H          6.81555        0.06959       -0.12535
H          8.84494        1.58045       -0.10172
H          8.86743        1.51255        1.65781
H          6.58477        2.56267        1.74866
H          6.51910        2.62198       -0.00826
H          8.60355        4.08184        1.73000
H          7.15008        4.82761        0.98115
H          9.06113        6.16892       -2.85527
H          8.71501        4.46558       -3.22817
H          9.55671        3.33990       -4.77949
H         11.05879        2.85403       -5.50545
H         10.25465        5.77346       -4.99033
H         12.53964        4.61382       -6.70261
H         12.74181        5.68244       -5.30076
H         11.97561        6.29013       -6.76578
H         10.05692        4.08160       -7.53741
H          9.66757        5.80525       -7.39265
H          8.69129        4.60202       -6.52731
H         13.21894        4.15397       -4.11381
H         13.03664        2.38595       -4.05716
H         14.23818        3.12367       -2.19912
H          9.60473        2.21916       -2.62727
H         11.19871        1.87902       -1.90344
H         10.80557        1.29953       -3.54336
H         11.48763        6.63214       -3.49035
H         12.82690        5.93756       -2.52613
H         12.90592       10.00311       -0.63031
H         12.23929        8.83339        0.57116
H         11.12812        9.71056       -0.53194
