87

C          0.70244       -0.54277       -0.80944
C          2.22292       -0.44711       -0.66515
C          2.77519       -1.29112        0.48814
C          4.29725       -1.20736        0.63526
C          4.85482       -2.06144        1.77819
C          6.37892       -1.98248        1.91157
C          6.94341       -2.84244        3.04652
C          8.46787       -2.76182        3.17483
C          9.03190       -3.60650        4.32187
C         10.55539       -3.51499        4.45445
C         11.11516       -4.30155        5.64508
C         12.63788       -4.19060        5.77448
C         13.19199       -4.85515        7.04045
C         14.72227       -4.72582        7.13926
C         15.21115       -5.27949        8.46977
N         16.74380       -5.43771        8.59985
C         17.59266       -4.16921        8.50771
C         17.29407       -3.05930        9.55715
F         16.08049       -2.50633        9.31372
F         17.28754       -3.62377       10.79794
F         18.87944       -4.55915        8.65147
F         17.43846       -3.67906        7.26639
C         17.08690       -6.34601        9.79181
O         16.84096       -7.61912        9.30269
C         17.29736       -8.66790       10.21500
C         16.96568      -10.02563        9.62734
C         17.44345      -11.15056       10.55658
C         17.07481      -12.55544       10.06678
C         17.53547      -13.65043       11.03445
C         17.15530      -15.07043       10.60334
C         17.59939      -16.13802       11.60853
C         17.22124      -17.56746       11.20780
C         17.67028      -18.61302       12.23123
H          0.33639        0.06927       -1.64523
H          0.19383       -0.19833        0.10336
H          0.38509       -1.58025       -0.99225
H          2.51466        0.60614       -0.51539
H          2.70370       -0.76324       -1.60635
H          2.48008       -2.34499        0.33999
H          2.29783       -0.97368        1.43211
H          4.59103       -0.15428        0.79057
H          4.77120       -1.51649       -0.31304
H          4.55627       -3.11354        1.62587
H          4.38824       -1.74915        2.72905
H          6.67646       -0.93081        2.06906
H          6.84319       -2.28835        0.95755
H          6.64546       -3.89407        2.89056
H          6.48123       -2.53511        4.00112
H          8.76528       -1.70839        3.32020
H          8.93151       -3.07878        2.22423
H          8.73921       -4.66129        4.17931
H          8.56508       -3.28730        5.27023
H         10.84757       -2.45493        4.55499
H         11.02681       -3.87270        3.52253
H         10.82920       -5.36367        5.55513
H         10.64294       -3.93528        6.57333
H         12.92402       -3.12459        5.77652
H         13.11706       -4.63443        4.88504
H         12.90867       -5.92083        7.06074
H         12.72491       -4.39091        7.92554
H         15.00054       -3.66933        7.02908
H         15.18834       -5.27568        6.30419
H         14.85515       -6.30753        8.62106
H         14.89532       -4.66763        9.32320
H         17.04915       -5.99681        7.78100
H         18.07972       -2.28855        9.50069
H         16.42903       -6.04739       10.62546
H         18.14285       -6.18267       10.05901
H         16.79554       -8.52712       11.18818
H         18.38546       -8.54706       10.36128
H         17.43983      -10.12196        8.63792
H         15.87725      -10.09852        9.47541
H         17.01305      -10.99979       11.56175
H         18.53803      -11.08446       10.67938
H         17.51822      -12.72848        9.07119
H         15.98137      -12.62021        9.93180
H         17.10759      -13.45095       12.03264
H         18.63092      -13.58919       11.15753
H         17.59925      -15.28732        9.61618
H         16.06152      -15.13049       10.46553
H         17.15936      -15.91134       12.59580
H         18.69355      -16.07740       11.74495
H         17.66331      -17.79866       10.22417
H         16.12835      -17.62905       11.07179
H         18.76241      -18.59846       12.36253
H         17.38580      -19.62810       11.92280
H         17.21701      -18.42531       13.21602
