115

C         24.67845       -0.49183        9.92082
C         23.59561       -0.45263        8.83971
C         24.03913       -1.07543        7.51139
C         22.96440       -1.02509        6.42130
C         23.40348       -1.63922        5.08837
C         22.32973       -1.55755        3.99900
C         22.75706       -2.16021        2.65744
C         21.67421       -2.06741        1.57773
C         22.08657       -2.67610        0.23443
C         20.98126       -2.62489       -0.82517
C         21.38549       -3.25482       -2.16099
C         20.26212       -3.26764       -3.20267
C         20.67808       -3.91350       -4.52706
C         19.56172       -3.96293       -5.57563
C         20.01826       -4.60799       -6.88690
C         18.94244       -4.64106       -7.97810
C         19.47558       -5.26464       -9.27596
C         18.45156       -5.22893      -10.40003
N         19.05133       -5.73503      -11.70505
C         18.15269       -5.53020      -12.92980
O         17.38400       -6.67617      -12.99584
C         18.18015       -7.83698      -12.59850
C         19.32772       -7.22655      -11.74274
C         17.25241       -8.70534      -11.73977
O         17.03649       -8.07336      -10.49715
C         16.17620       -8.82160       -9.61808
C         16.02407       -8.06480       -8.31027
C         15.14010       -8.82511       -7.31447
C         14.92517       -8.09174       -5.98670
C         14.03941       -8.88101       -5.01717
C         13.77407       -8.17312       -3.68520
C         12.89210       -8.99504       -2.73898
C         12.58132       -8.30011       -1.40976
C         11.71078       -9.14570       -0.47393
C         11.37647       -8.45802        0.85439
C         10.51085       -9.31811        1.77932
C         18.64723       -8.66602      -13.81309
C         19.17661       -7.92161      -15.05317
C         20.61282       -7.39239      -14.94919
O         20.97759       -6.63457      -16.08373
O         19.08380       -8.75700      -16.21386
H         24.33000       -0.03844       10.85910
H         25.57931        0.05429        9.60294
H         24.98270       -1.52538       10.14441
H         23.28767        0.59220        8.66394
H         22.69339       -0.97478        9.20128
H         24.33910       -2.12458        7.68295
H         24.94717       -0.55871        7.15280
H         22.66486        0.02495        6.25525
H         22.05673       -1.54264        6.77924
H         23.68603       -2.69510        5.24646
H         24.31945       -1.13220        4.73677
H         22.04572       -0.50096        3.84839
H         21.41475       -2.06639        4.35079
H         23.03609       -3.21876        2.80392
H         23.67250       -1.65407        2.30331
H         21.39646       -1.00892        1.42950
H         20.75913       -2.57008        1.93801
H         22.39138       -3.72638        0.38898
H         22.98367       -2.15555       -0.14477
H         20.67877       -1.57586       -0.99063
H         20.08406       -3.13909       -0.43749
H         21.72684       -4.29037       -1.98498
H         22.25841       -2.71661       -2.57079
H         19.92032       -2.23444       -3.38913
H         19.38961       -3.80496       -2.79122
H         21.03886       -4.93909       -4.33311
H         21.54153       -3.36531       -4.94360
H         19.19952       -2.93953       -5.77606
H         18.69766       -4.51809       -5.17095
H         20.36452       -5.63698       -6.68613
H         20.89903       -4.06231       -7.26889
H         18.58780       -3.61588       -8.17866
H         18.06527       -5.21094       -7.62853
H         19.78650       -6.30170       -9.07162
H         20.38390       -4.71701       -9.58781
H         18.12633       -4.19904      -10.60421
H         17.57496       -5.85914      -10.20213
H         19.93390       -5.22738      -11.85042
H         18.82871       -5.37750      -13.79089
H         17.50806       -4.65517      -12.78308
H         20.31714       -7.38278      -12.18167
H         19.30644       -7.60901      -10.71930
H         17.71183       -9.70435      -11.60254
H         16.30608       -8.84119      -12.29529
H         16.61604       -9.82236       -9.44584
H         15.19466       -8.96574      -10.10614
H         15.58978       -7.07227       -8.51693
H         17.02321       -7.89444       -7.87395
H         15.58566       -9.81467       -7.11379
H         14.15861       -9.02390       -7.77831
H         14.47030       -7.10469       -6.18175
H         15.90249       -7.88964       -5.51363
H         14.50515       -9.86271       -4.82043
H         13.07488       -9.10023       -5.50794
H         13.29549       -7.19672       -3.87793
H         14.73457       -7.94715       -3.18928
H         13.38290       -9.96355       -2.53713
H         11.94431       -9.24048       -3.24985
H         12.07657       -7.33831       -1.60942
H         13.52654       -8.04452       -0.89895
H         12.22120      -10.10357       -0.26897
H         10.77186       -9.41156       -0.99138
H         10.86186       -7.50393        0.64909
H         12.31404       -8.18963        1.37037
H          9.55159       -9.57404        1.30500
H         10.28663       -8.79849        2.72094
H         11.01440      -10.26285        2.03345
H         17.78157       -9.24985      -14.16126
H         19.39526       -9.39778      -13.45998
H         18.50303       -7.08326      -15.29032
H         21.30112       -8.24951      -14.78385
H         20.74393       -6.71316      -14.09053
H         20.72108       -7.15072      -16.86896
H         19.61560       -9.55950      -16.07121
