99

C          0.91008        0.16037        0.13959
C          2.37679        0.47351        0.44742
C          3.05508        1.33126       -0.62695
C          4.52334        1.64853       -0.32480
C          5.20843        2.48705       -1.40883
C          6.67788        2.80038       -1.10733
C          7.36942        3.61284       -2.20676
C          8.84278        3.91725       -1.91504
C          9.53509        4.70691       -3.03053
C         11.00941        5.01330       -2.74680
C         11.70622        5.75839       -3.89006
C         13.18145        6.06121       -3.60661
C         13.89643        6.68504       -4.81306
C         15.32492        7.19668       -4.56551
C         16.20871        6.11988       -3.94212
N         17.59114        6.69352       -3.70309
C         17.59304        7.96804       -2.84457
C         16.66582        8.96247       -3.57197
N         15.33799        8.36378       -3.68318
C         16.61874       10.31498       -2.85832
C         15.88233       11.38370       -3.68131
O         15.29366       11.05614       -4.71014
C         15.89695       12.78976       -3.20326
C         15.22945       13.75737       -3.97942
C         15.21515       15.08992       -3.58050
C         15.86317       15.47402       -2.40031
C         16.52561       14.52175       -1.61925
C         16.54504       13.18609       -2.01756
C         17.21672        7.63242       -1.39415
C         18.12221        8.34469       -0.37737
C         17.71852        8.18077        1.10193
C         17.55778        6.69727        1.51494
C         16.10692        6.16966        1.44527
C         16.03011        4.67409        1.53348
C         15.46833        3.81986        0.65760
C         14.76280        4.23633       -0.60849
C         15.48476        2.33403        0.90714
C         18.74014        8.90944        1.98517
H          0.45420       -0.45330        0.92887
H          0.80937       -0.38970       -0.80792
H          0.31474        1.08144        0.05010
H          2.93805       -0.46927        0.56441
H          2.44756        0.98871        1.42052
H          2.49410        2.27505       -0.74748
H          2.98612        0.81471       -1.60078
H          5.07945        0.70372       -0.19071
H          4.59037        2.17677        0.64272
H          4.65427        3.43254       -1.54488
H          5.14069        1.95719       -2.37534
H          7.22724        1.85473       -0.95316
H          6.74573        3.34721       -0.15032
H          6.82416        4.56100       -2.35849
H          7.29386        3.06700       -3.16385
H          9.38464        2.96877       -1.75076
H          8.92005        4.47734       -0.96638
H          8.99254        5.65327       -3.20051
H          9.45793        4.14229       -3.97635
H         11.54669        4.06786       -2.55092
H         11.09050        5.60488       -1.81770
H         11.17334        6.70247       -4.09693
H         11.62725        5.15863       -4.81369
H         13.67848        5.11832       -3.32158
H         13.26223        6.73216       -2.73600
H         13.31286        7.54029       -5.19246
H         13.92851        5.96005       -5.64252
H         15.76565        7.45040       -5.56034
H         16.32620        5.24773       -4.59829
H         15.82905        5.79579       -2.96695
H         18.01227        6.91938       -4.61676
H         18.19162        5.98856       -3.25658
H         18.63285        8.32691       -2.90023
H         17.10631        9.14246       -4.58260
H         14.71180        9.07579       -4.06727
H         17.64137       10.66587       -2.65180
H         16.11479       10.21868       -1.88263
H         14.73022       13.43745       -4.89410
H         14.69887       15.83442       -4.18694
H         15.85262       16.51894       -2.08819
H         17.02918       14.82268       -0.70029
H         17.06551       12.45762       -1.39491
H         17.28757        6.54437       -1.22707
H         16.15772        7.88625       -1.24215
H         18.16222        9.42155       -0.60749
H         19.15514        7.97107       -0.50232
H         16.74013        8.67740        1.23810
H         17.92739        6.56285        2.54290
H         18.21204        6.06338        0.89038
H         15.61139        6.53038        0.53303
H         15.54185        6.61951        2.28050
H         16.49968        4.23764        2.42247
H         14.77914        5.31955       -0.78214
H         13.70467        3.92855       -0.58920
H         15.20605        3.73006       -1.48373
H         16.01654        2.08225        1.83283
H         15.96720        1.79369        0.07609
H         14.46047        1.93405        0.98214
H         19.72985        8.43165        1.92138
H         18.43114        8.89200        3.03868
H         18.85835        9.96209        1.68912
