46

C          2.07027        0.21690        1.35764
O          2.92837       -0.58761        0.52373
C          3.03938       -0.07408       -0.78553
N          3.98485       -0.90818       -1.53788
C          3.72237       -2.22073       -1.75198
N          2.76332       -2.81229       -1.02817
N          4.39422       -2.89421       -2.69467
C          5.39774       -2.26111       -3.55851
O          5.17337       -0.87077       -3.57979
C          5.03632       -0.25753       -2.32942
C          6.40553       -0.00864       -1.54968
C          6.81560       -1.00117       -0.40602
C          8.32380       -1.00063        0.10670
C          8.89457        0.37196        0.62452
C         10.22327        0.35425        1.49434
C         11.56597       -0.26787        0.93925
C         12.25615        0.29014       -0.37067
C         12.66567        1.80932       -0.42900
F         13.34672        2.16957        0.66957
F         13.44320        1.99400       -1.50834
F         11.57724        2.59290       -0.54960
F         13.39160       -0.43735       -0.51180
F         11.44807        0.03911       -1.43541
F         12.45917       -0.15529        1.95127
F         11.33920       -1.59168        0.71299
F         10.46167        1.65255        1.81217
F          9.94624       -0.31956        2.63856
F          9.08052        1.18617       -0.44299
F          7.94878        0.92899        1.43175
F          8.34583       -1.90628        1.11658
F          9.09166       -1.45970       -0.91010
F          5.98228       -0.82081        0.64281
F          6.61737       -2.28010       -0.87778
F          7.38891        0.04365       -2.48067
F          6.27231        1.22890       -0.98089
H          2.05614       -0.27055        2.33698
H          1.04776        0.26402        0.94925
H          2.47744        1.23465        1.45992
H          3.44303        0.95167       -0.78032
H          2.05482       -0.07505       -1.29531
H          2.49836       -2.35634       -0.15007
H          2.50882       -3.77880       -1.19230
H          4.33047       -3.90778       -2.70522
H          5.25968       -2.60820       -4.59017
H          6.41111       -2.51245       -3.20729
H          4.69721        0.76361       -2.55494
