69

C          5.58267        2.01596        1.41504
C          6.20116        0.69198        1.86537
C          5.22131       -0.48661        1.80767
C          5.89811       -1.83296        2.08901
C          4.91150       -3.00083        2.05996
O          5.53570       -4.29888        2.24670
C          5.70803       -5.04725        1.06636
C          7.00802       -4.66801        0.33127
N          8.22355       -5.48038        0.69017
C          9.20909       -5.04142       -0.36244
O          8.44896       -4.99040       -1.53408
C          7.05189       -4.66905       -1.23243
C          6.14779       -5.65966       -1.97969
C          6.19311       -7.13961       -1.56606
C          7.44925       -7.89973       -2.00633
S          7.35799       -9.67469       -1.65353
C          7.93035       -9.82594        0.01716
S          8.51165       -8.53805        0.96051
N          7.91967      -11.08711        0.48520
C          7.41834      -12.25417       -0.26086
C          6.33398      -12.95860        0.56379
O          6.81677      -13.33142        1.84633
C          7.25863      -12.18894        2.57230
C          8.37931      -11.45386        1.83519
C          6.71263       -3.26969       -1.66441
N          5.54832       -2.81413       -2.01157
N          5.66020       -1.42868       -2.08377
C          6.90327       -1.14692       -1.78189
O          7.64448       -2.27687       -1.48505
S          7.62729        0.42170       -1.80279
C          9.20923        0.12015       -0.91942
C          9.90881        1.46500       -0.73892
H          6.30761        2.83888        1.47797
H          4.71963        2.28774        2.04000
H          5.23482        1.95521        0.37362
H          6.59656        0.78865        2.89029
H          7.07015        0.46365        1.22455
H          4.75058       -0.52122        0.81030
H          4.40325       -0.32051        2.52933
H          6.40648       -1.81613        3.06688
H          6.68908       -1.97421        1.33169
H          4.34138       -3.00592        1.11432
H          4.19044       -2.89994        2.88441
H          4.86193       -4.89865        0.37304
H          5.72302       -6.10938        1.35553
H          7.26136       -3.65173        0.65775
H          8.08970       -6.55240        0.62432
H          8.54276       -5.27147        1.64459
H         10.00766       -5.78673       -0.47116
H          9.61613       -4.06097       -0.05853
H          6.40202       -5.56000       -3.04611
H          5.11780       -5.28503       -1.89657
H          5.32142       -7.62843       -2.02438
H          6.05534       -7.26447       -0.48185
H          8.37844       -7.52729       -1.56164
H          7.56853       -7.86576       -3.09987
H          8.26363      -12.93722       -0.44133
H          7.01048      -11.94744       -1.23012
H          6.02586      -13.88371        0.05973
H          5.45283      -12.29398        0.65918
H          7.62538      -12.55224        3.54097
H          6.41275      -11.49664        2.75079
H          9.25725      -12.11081        1.72689
H          8.67642      -10.54463        2.36755
H          9.81525       -0.57310       -1.51619
H          8.97857       -0.34247        0.05015
H         10.12322        1.94307       -1.70404
H         10.86542        1.31183       -0.22170
H          9.30473        2.15586       -0.13593
