59

C          7.87659        2.29500        8.57304
C          7.42355        2.97183        7.27730
C          7.50390        2.05010        6.05487
C          7.05832        2.72314        4.75179
C          7.19453        1.81167        3.52673
C          6.68635        2.42108        2.21710
N          7.37311        3.67812        1.82850
C          8.70788        3.84497        1.68746
N          9.47880        2.92451        1.08852
C          9.04225        1.85170        0.18244
C         10.11367        1.57088       -0.88123
C          9.68838        0.42008       -1.76654
C          8.84582        0.64435       -2.86533
C          8.40706       -0.42184       -3.65271
C          8.80786       -1.72640       -3.35003
C          9.65090       -1.95954       -2.26050
C         10.08663       -0.89170       -1.47242
N          9.25890        4.98323        2.14109
C         10.53664        5.55874        1.76436
C         10.55733        6.97710        2.35362
O          9.63753        7.40331        3.02941
O         11.67698        7.60679        2.02374
C         11.86471        8.97547        2.54603
C         12.55284        8.95612        3.90268
C         12.89098       10.37665        4.37039
H          7.81002        2.98169        9.42717
H          8.91949        1.95188        8.50308
H          7.25493        1.41768        8.80448
H          8.03905        3.86973        7.09494
H          6.38794        3.33370        7.39171
H          6.88553        1.15302        6.23028
H          8.53983        1.68431        5.94126
H          7.65356        3.64265        4.60801
H          6.00849        3.05175        4.84876
H          6.62340        0.88272        3.68695
H          8.24561        1.49704        3.40629
H          5.62649        2.69570        2.30291
H          6.75206        1.69526        1.39734
H          6.88348        4.52756        2.09300
H         10.48236        3.02808        1.20530
H          8.10938        2.16992       -0.30168
H          8.83715        0.93087        0.75126
H         11.06666        1.32469       -0.38400
H         10.27920        2.47966       -1.48044
H          8.53843        1.66313       -3.11463
H          7.75688       -0.23369       -4.50778
H          8.46977       -2.55810       -3.96853
H          9.97584       -2.97387       -2.02672
H         10.75343       -1.07945       -0.62724
H          8.72997        5.59787        2.76888
H         10.66152        5.60827        0.67152
H         11.39452        5.00593        2.18390
H         10.88269        9.46509        2.58547
H         12.48664        9.45467        1.77977
H         13.47173        8.35475        3.82678
H         11.89821        8.46285        4.63723
H         13.57336       10.87935        3.67013
H         13.38226       10.35168        5.35093
H         11.98909       10.99794        4.46641
