68

C         13.36473        4.75413       -2.37694
C         12.59842        3.46510       -2.07329
C         12.77957        2.98029       -0.63116
C         12.01624        1.68966       -0.31920
C         12.18360        1.21460        1.12765
C         11.42619       -0.08087        1.43417
C         11.59557       -0.56012        2.88052
C         10.86610       -1.88031        3.15671
C         11.08201       -2.46129        4.56824
C         10.35672       -1.63862        5.62982
N         10.73409       -2.00576        7.06205
C         10.08147       -1.06970        8.12239
C         10.54625       -1.49342        9.51955
C         10.35063       -2.97720        9.82551
C         11.07587       -3.81853        8.77675
C         10.59197       -3.50204        7.35043
C          9.15679       -4.01411        7.10576
O          8.20183       -3.25902        7.10401
C          9.02731       -5.49633        6.85872
C         10.44136        0.40271        7.83639
C          9.35123        1.26876        7.16563
C          8.11151        1.46994        8.06864
C          8.33203        2.28400        9.34802
C          9.95944        2.60079        6.70638
H         13.21071        5.07884       -3.41474
H         14.44626        4.61910       -2.22771
H         13.04032        5.57464       -1.71985
H         12.92260        2.67025       -2.76576
H         11.52410        3.61891       -2.27005
H         12.45319        3.77512        0.06282
H         13.85467        2.82640       -0.43118
H         12.35187        0.89242       -1.00510
H         10.94324        1.83995       -0.53123
H         11.84230        2.01007        1.81359
H         13.25691        1.06815        1.34138
H         11.76919       -0.87530        0.74926
H         10.35280        0.06181        1.22062
H         11.23804        0.23441        3.55924
H         12.67092       -0.68932        3.09651
H         11.21068       -2.63383        2.43217
H          9.78504       -1.76059        2.97217
H         12.16606       -2.48934        4.78172
H         10.72405       -3.50153        4.57569
H          9.26854       -1.74460        5.55982
H         10.61084       -0.57933        5.52508
H         11.74648       -1.82247        7.13853
H          9.00694       -1.25464        8.00286
H          9.98972       -0.87159       10.23483
H         11.61040       -1.22235        9.64380
H          9.27769       -3.22413        9.84345
H         10.74479       -3.21138       10.82337
H         10.94229       -4.89404        8.95575
H         12.16232       -3.63367        8.82783
H         11.25520       -4.00219        6.63055
H          9.79877       -6.09297        7.36152
H          9.13644       -5.67214        5.77543
H          8.02684       -5.83275        7.15186
H         11.37286        0.45236        7.24392
H         10.70934        0.86644        8.79824
H          8.99128        0.74066        6.26559
H          7.68392        0.48727        8.32967
H          7.33960        1.96548        7.46002
H          9.06594        1.82253       10.02561
H          7.39179        2.37175        9.90735
H          8.67709        3.30365        9.13165
H         10.40668        3.15428        7.54422
H          9.19656        3.24610        6.25009
H         10.75186        2.44201        5.96009
