68

C          0.74749        0.25461       -0.23003
C          2.27562        0.20231       -0.15715
C          2.79970       -0.74846        0.92444
C          4.32813       -0.81528        0.99799
C          4.85101       -1.76855        2.07672
C          6.37946       -1.83430        2.14602
C          6.90989       -2.77642        3.23089
C          8.43897       -2.81518        3.30159
C          8.99278       -3.72172        4.40488
C         10.52331       -3.71908        4.46109
C         11.11063       -4.56882        5.59503
C         12.64508       -4.65512        5.57976
C         13.33138       -3.30713        5.84036
C         14.85305       -3.32424        5.64900
C         15.47042       -1.95027        5.89063
N         16.84017       -2.02219        5.23147
C         16.66456       -2.93104        3.99193
C         15.31369       -3.64422        4.20736
Si        16.80941       -1.92184        2.33790
C         16.63133       -3.18349        0.96717
C         15.42546       -0.64475        2.32780
C         18.48745       -1.07540        2.34855
N         17.94220       -2.48956        6.05007
H          0.40351        0.94340       -1.01380
H          0.31338        0.59273        0.72280
H          0.32424       -0.73683       -0.45036
H          2.67157        1.21546        0.02811
H          2.68144       -0.10449       -1.13623
H          2.39868       -1.76160        0.74369
H          2.39983       -0.43899        1.90646
H          4.72940        0.19747        1.18109
H          4.72725       -1.12292        0.01510
H          4.44964       -2.78114        1.89557
H          4.45468       -1.45992        3.06017
H          6.77923       -0.81926        2.32020
H          6.77601       -2.14836        1.16409
H          6.52433       -3.79563        3.05409
H          6.50715       -2.46781        4.21157
H          8.81876       -1.78871        3.45401
H          8.84045       -3.14159        2.32554
H          8.63154       -4.75367        4.25552
H          8.59069       -3.39855        5.38085
H         10.86197       -2.67237        4.55415
H         10.92207       -4.08092        3.49557
H         10.70581       -5.59081        5.52609
H         10.77081       -4.17588        6.56882
H         12.96218       -5.05227        4.60036
H         12.98463       -5.38537        6.33229
H         13.09503       -2.97241        6.86413
H         12.91757       -2.54101        5.16309
H         15.29807       -4.05279        6.35038
H         15.59526       -1.65306        6.93892
H         14.90928       -1.16833        5.35621
H         17.13160       -1.08459        4.92615
H         17.51566       -3.62322        4.04262
H         15.40943       -4.72206        4.03495
H         14.55384       -3.27301        3.50211
H         15.66205       -3.69867        1.00909
H         17.42689       -3.93987        1.01221
H         16.70007       -2.68592       -0.01046
H         14.42794       -1.09958        2.39835
H         15.46109       -0.08695        1.38058
H         15.52153        0.10216        3.13054
H         19.30888       -1.80218        2.40716
H         18.61079       -0.36079        3.17700
H         18.61574       -0.49869        1.42126
H         17.70304       -3.43569        6.36301
H         17.98765       -1.89198        6.88300
