43

C          0.63590        0.80442       -0.26900
C          2.12412        0.73542       -0.53596
O          2.80621        1.42748        0.53410
C          4.20523        1.44003        0.39456
C          4.74000        2.10296        1.67088
S          6.57923        2.27443        1.55002
C          6.40827        3.91559        1.15396
N          5.21553        4.43870        1.27489
C          4.20335        3.53217        1.89749
C          3.98787        3.91818        3.37059
C          2.77749        3.19997        3.97607
C          2.54435        3.58232        5.43803
C          1.38917        2.78423        6.04322
O          0.81540        1.89224        5.46752
O          1.02899        3.12804        7.30959
C          4.86207        5.79771        0.84421
C          4.13907        5.79895       -0.52456
C          3.89738        7.19133       -0.98750
C          2.71055        7.80660       -1.07862
F          1.56480        7.21353       -0.75769
F          2.53695        9.04158       -1.49585
F          5.01407        7.88754       -1.32500
H          0.09153        0.27731       -1.06361
H          0.28436        1.84446       -0.24895
H          0.38606        0.33141        0.68925
H          2.38553        1.21328       -1.49857
H          2.47909       -0.31027       -0.56933
H          4.52389        2.00989       -0.50475
H          4.62302        0.41902        0.30141
H          4.52323        1.46748        2.53853
H          7.25723        4.51360        0.81745
H          3.25872        3.63008        1.34161
H          3.83453        5.00744        3.43210
H          4.90494        3.70060        3.94380
H          2.89052        2.10780        3.91518
H          1.87498        3.43056        3.38985
H          2.33045        4.65996        5.53696
H          3.44682        3.38931        6.04366
H          1.57530        3.86252        7.64090
H          5.78477        6.38937        0.79219
H          4.21773        6.24161        1.61448
H          3.18068        5.26731       -0.45741
H          4.76331        5.27305       -1.26608
