49

C          7.70922        5.39288       -3.13630
C          8.05063        4.71987       -1.80527
C          6.84400        4.04926       -1.13926
C          7.18375        3.37619        0.19481
C          5.96213        2.76333        0.88583
C          6.27737        2.02480        2.19371
N          6.94767        2.87913        3.19301
C          6.19907        4.00988        3.78767
C          5.81533        3.71231        5.24282
C          4.88533        4.75317        5.91178
O          5.59228        5.95173        6.24979
C          3.61114        5.05572        5.12468
O          6.89879        5.23443        3.56397
C          8.29167        5.25487        3.87045
N          8.79970        3.89051        4.08077
C          8.24335        2.80877        3.51668
N          8.98520        1.70077        3.31878
C          8.63049        6.13698        5.07516
C         10.12132        6.35898        5.26644
F         10.76920        5.11974        5.55055
H          8.59184        5.87049       -3.58155
H          6.94110        6.16954       -3.00694
H          7.32345        4.66500       -3.86475
H          8.47562        5.46704       -1.11267
H          8.84258        3.96831       -1.96366
H          6.41251        3.30216       -1.82711
H          6.05302        4.80191       -0.97549
H          7.64673        4.12591        0.85956
H          7.94671        2.59495        0.02923
H          5.47716        2.02854        0.22316
H          5.20346        3.54276        1.06495
H          6.92763        1.16636        1.98232
H          5.36196        1.62411        2.65432
H          5.28996        4.11917        3.18338
H          6.71208        3.59371        5.86779
H          5.29606        2.73966        5.23978
H          4.60368        4.31925        6.88411
H          5.58319        6.53210        5.47137
H          3.82793        5.58371        4.18207
H          2.95276        5.70108        5.71871
H          3.05548        4.13874        4.88111
H          8.77466        5.67015        2.96539
H          9.67675        3.82612        4.59974
H          9.99241        1.73781        3.41466
H          8.55499        0.78885        3.23573
H          8.16584        5.73798        5.98726
H          8.17408        7.12133        4.88993
H         10.32010        7.02072        6.11866
H         10.61036        6.76269        4.36677
