91

C          1.12786        0.74538        0.26848
C          2.65111        0.64210        0.15708
C          3.24711       -0.48123        1.01256
C          4.76954       -0.60439        0.89567
C          5.35762       -1.74339        1.73396
C          6.87725       -1.88692        1.60414
C          7.44632       -3.04821        2.42347
C          8.96146       -3.22778        2.28492
C          9.48749       -4.40594        3.10789
C         11.00577       -4.59337        3.04704
C         11.46648       -5.77990        3.89755
C         13.00679       -5.86177        4.07198
C         13.36704       -6.62106        5.31738
C         13.45639       -8.00674        5.25506
C         13.70598       -8.79122        6.39787
C         13.77023      -10.20804        6.37898
C         14.02167      -10.93533        7.52177
C         14.13833      -12.43471        7.58908
C         13.74754      -13.07386        8.93129
C         13.78712      -14.60483        8.87928
C         13.49806      -15.25443       10.23612
N         13.56219      -16.71147       10.12269
N         14.20437      -10.22614        8.68910
C         14.15214       -8.88821        8.78433
C         13.90221       -8.11064        7.65325
C         13.83001       -6.69714        7.70829
C         13.55304       -5.94541        6.58137
C         13.43012       -4.45392        6.73033
C         11.98822       -3.93982        7.01048
O         11.48340       -4.54234        8.21259
C         10.50723       -5.57268        8.02492
C          9.20298       -5.11278        7.40426
C          8.62476       -3.88287        7.75191
C          7.41123       -3.48814        7.18600
C          6.75089       -4.32393        6.27897
C          7.31088       -5.55754        5.94057
C          8.53420       -5.94276        6.49513
C         11.99382       -2.42665        7.19147
H          0.73111        1.55684       -0.35685
H          0.81515        0.94181        1.30499
H          0.64048       -0.18807       -0.05078
H          3.10926        1.60240        0.44870
H          2.93382        0.48191       -0.89720
H          2.78140       -1.44118        0.72655
H          2.97297       -0.31831        2.07019
H          5.23871        0.34984        1.19355
H          5.04211       -0.75560       -0.16372
H          4.87820       -2.69429        1.44077
H          5.09495       -1.58942        2.79590
H          7.36349       -0.94520        1.91404
H          7.14061       -2.02623        0.54094
H          6.94289       -3.98450        2.12313
H          7.19718       -2.90319        3.48945
H          9.47161       -2.30131        2.60261
H          9.22231       -3.36845        1.22160
H          8.98815       -5.33362        2.77684
H          9.19105       -4.26889        4.16081
H         11.49743       -3.67521        3.41509
H         11.34126       -4.72004        2.00401
H         11.10194       -6.72798        3.47022
H         10.99173       -5.70647        4.88669
H         13.41664       -4.84384        4.11036
H         13.45524       -6.34940        3.19477
H         13.32108       -8.50548        4.29311
H         13.61797      -10.74390        5.44156
H         15.17821      -12.71390        7.34272
H         13.52014      -12.85309        6.78142
H         12.73913      -12.73765        9.22705
H         14.44089      -12.74793        9.73077
H         14.77103      -14.95264        8.52722
H         13.04994      -14.96012        8.13873
H         12.53292      -14.86778       10.62680
H         14.27224      -14.94285       10.95620
H         12.75496      -17.07547        9.61455
H         13.54852      -17.14982       11.04305
H         14.37295      -10.76934        9.53622
H         14.30642       -8.46139        9.77496
H         13.97682       -6.19375        8.66514
H         13.80859       -3.93644        5.83826
H         14.05503       -4.13068        7.57579
H         11.32706       -4.19925        6.16921
H         10.32982       -5.96140        9.04033
H         10.91673       -6.40610        7.42341
H          9.13173       -3.23555        8.46895
H          6.97385       -2.52669        7.45811
H          5.80398       -4.01242        5.83705
H          6.80612       -6.21199        5.22912
H          8.97862       -6.90098        6.21371
H         12.57020       -2.14949        8.08531
H         10.96961       -2.05541        7.31261
H         12.44107       -1.92667        6.32133
