59

C          2.28659        3.85988        0.08949
C          3.29662        2.72226        0.26751
C          3.10871        1.97918        1.60098
C          4.10356        0.85833        1.96859
C          5.59172        1.29068        2.04044
C          6.25308        0.92553        0.68777
N          5.17117        0.13771       -0.04414
C          4.17611       -0.34387        1.01259
C          2.92283       -0.94597        0.40038
C          3.24173       -2.17041       -0.46885
C          2.00834       -3.03926       -0.75118
N          1.50815       -3.61373        0.49168
C          2.21455       -4.80855        0.96594
C          2.11680       -4.91500        2.49162
O          2.87529       -6.00745        3.00915
O          3.92019       -1.77745       -1.68118
C          7.56112        0.08838        0.75928
C          7.31761       -1.38310        1.01028
C          7.16229       -1.90813        2.30518
C          6.79615       -3.23947        2.49845
C          6.57004       -4.10373        1.41109
C          6.75716       -3.58664        0.12135
C          7.13197       -2.25426       -0.07589
C          6.17685       -5.53993        1.63215
H          2.42895        4.37494       -0.86894
H          2.38961        4.60666        0.88912
H          1.25414        3.48328        0.11681
H          4.31629        3.13868        0.19917
H          3.17704        2.02851       -0.58635
H          2.08762        1.56595        1.63676
H          3.14824        2.72158        2.41442
H          3.79700        0.47274        2.95172
H          6.09434        0.75239        2.85404
H          5.70202        2.36213        2.24813
H          6.43732        1.82562        0.08785
H          5.54945       -0.67464       -0.56020
H          4.68199        0.72861       -0.72673
H          4.72513       -1.14600        1.52942
H          2.35025       -0.20917       -0.18691
H          2.27396       -1.28188        1.22482
H          3.97860       -2.79136        0.06830
H          2.29113       -3.79546       -1.51220
H          1.21233       -2.41434       -1.19038
H          0.50712       -3.78536        0.43080
H          3.27873       -4.72308        0.70077
H          1.84950       -5.74134        0.49234
H          1.06020       -4.97036        2.80944
H          2.53972       -4.00361        2.93969
H          2.36815       -6.82574        2.89518
H          3.26582       -1.67731       -2.39166
H          8.18783        0.53391        1.54486
H          8.10777        0.21244       -0.18714
H          7.34020       -1.27136        3.17397
H          6.68841       -3.62220        3.51533
H          6.61972       -4.23660       -0.74454
H          7.30410       -1.89773       -1.09630
H          6.99511       -6.09615        2.11359
H          5.94772       -6.04298        0.68452
H          5.29835       -5.62807        2.28733
