85

S          1.97974        0.84953        0.66000
C          3.51110        0.39653        1.10904
N          3.84401       -0.67910        1.86956
C          2.81838       -1.66260        2.25253
C          2.44747       -1.48533        3.72416
O          3.60619       -1.60428        4.55292
C          4.57570       -0.62628        4.21050
C          5.02268       -0.74626        2.74481
S          4.80439        1.48740        0.53688
C          6.21829        0.44109       -0.02635
C          6.77638        1.17217       -1.25378
C          8.01749        0.48757       -1.80461
N          8.60126        1.06291       -3.10298
C          8.77246        2.57825       -3.14392
C          7.55246        3.29675       -3.72914
C          7.81488        4.79462       -3.87916
C          8.10495        5.49572       -2.54599
C          8.14845        7.02320       -2.65074
N          8.57414        7.58259       -1.37632
C          8.58661        9.04728       -1.32891
C          9.13710        9.55250       -0.01267
C          9.14395        8.76593        1.14597
C          9.67977        9.23608        2.34749
C         10.22176       10.52091        2.40561
C         10.21635       11.32982        1.26876
C          9.67333       10.85257        0.07111
O          9.63706       11.62125       -1.06795
O          7.26113        2.76734       -5.02693
C          6.87516        1.38576       -5.01369
C          8.01870        0.54809       -4.41972
C          5.44079        1.16100       -4.49517
C          5.11441       -0.29612       -4.15730
C          3.65237       -0.53528       -3.73271
C          3.48856       -1.92063       -3.14889
C          3.38469       -2.09411       -1.76124
C          3.31762       -3.37405       -1.20411
C          3.35218       -4.50162       -2.02743
C          3.44101       -4.34014       -3.41308
C          3.50791       -3.06040       -3.96780
H          3.24930       -2.66573        2.10281
H          1.94596       -1.52381        1.60288
H          1.75377       -2.27368        4.04315
H          1.96489       -0.50128        3.87198
H          5.43432       -0.78618        4.87670
H          4.17627        0.39271        4.38220
H          5.53840       -1.70570        2.57974
H          5.70109        0.08026        2.50979
H          5.83263       -0.55263       -0.29503
H          6.97934        0.32615        0.75974
H          7.01226        2.20988       -0.97240
H          5.98177        1.21230       -2.00482
H          7.83136       -0.57426       -2.01832
H          8.84175        0.54630       -1.07870
H          9.55755        0.69141       -3.10262
H          9.64281        2.76665       -3.78898
H          9.00560        2.90729       -2.12466
H          6.68366        3.16185       -3.06287
H          6.91774        5.22361       -4.35058
H          8.64248        4.94450       -4.59132
H          9.07877        5.16084       -2.14578
H          7.34923        5.22300       -1.79108
H          7.14061        7.40750       -2.87958
H          8.79605        7.32244       -3.50587
H          9.51546        7.24727       -1.15595
H          7.54851        9.40105       -1.46491
H          9.16819        9.49909       -2.15698
H          8.71054        7.76658        1.09322
H          9.67303        8.60143        3.23378
H         10.64906       10.90025        3.33429
H         10.63627       12.33852        1.30641
H         10.04356       12.48184       -0.87631
H          6.88021        1.09599       -6.07698
H          8.86038        0.59252       -5.12358
H          7.74299       -0.50123       -4.26638
H          4.76391        1.52903       -5.28037
H          5.23765        1.80036       -3.62339
H          5.75257       -0.64812       -3.32891
H          5.35425       -0.94932       -5.01350
H          2.98855       -0.39280       -4.59982
H          3.35856        0.21402       -2.98074
H          3.31969       -1.21396       -1.11857
H          3.22357       -3.49250       -0.12443
H          3.29758       -5.50124       -1.59544
H          3.45059       -5.21439       -4.06520
H          3.56626       -2.94779       -5.05326
