54

C          2.75890        4.03160       -3.34048
C          2.55885        2.51447       -3.29643
C          3.17470        1.77715       -4.49683
C          4.67178        1.89410       -4.65072
O          5.27870        2.02344       -5.69302
O          5.32102        1.80276       -3.43366
C          6.74907        1.79918       -3.50487
C          7.31049        3.23397       -3.69961
C          8.80563        3.21491       -3.67640
C          9.55660        3.07812       -4.83125
C         10.94745        2.95787       -4.75531
N         11.53181        2.96733       -3.54960
N         10.88943        3.12860       -2.40311
C          9.54817        3.26322       -2.44580
N          8.95911        3.41459       -1.24337
C         12.99447        2.80322       -3.39489
C         13.76308        4.12810       -3.55265
O         13.28402        5.18780       -2.69399
C         13.36533        5.04736       -1.33165
O         13.77138        4.05634       -0.76708
C         12.85861        6.29904       -0.64994
S         11.03223        6.29579       -0.49163
C         15.26799        3.84640       -3.41533
O         16.06462        4.99626       -3.73175
C         16.19171        5.27531       -5.06596
O         15.65048        4.62495       -5.93827
C         17.05770        6.49011       -5.28471
S         16.07169        8.02317       -5.09131
H          2.26846        4.51718       -2.48659
H          2.33683        4.46685       -4.25768
H          3.82522        4.30337       -3.30421
H          1.48309        2.28521       -3.28585
H          2.96903        2.10363       -2.36258
H          2.74107        2.12067       -5.44587
H          2.95711        0.69788       -4.42241
H          7.08205        1.16487       -4.33874
H          7.08504        1.36501       -2.55424
H          6.89651        3.89262       -2.92034
H          6.95739        3.61096       -4.66753
H          9.07290        3.04738       -5.80748
H         11.59654        2.83638       -5.61987
H          9.55605        3.61518       -0.44575
H          7.97411        3.62938       -1.16686
H         13.33427        2.10554       -4.17063
H         13.14648        2.36878       -2.40177
H         13.57982        4.53144       -4.55802
H         13.17877        7.20572       -1.17538
H         13.23922        6.31076        0.37730
H         10.76600        6.59550       -1.78443
H         15.52880        3.01995       -4.09336
H         15.53120        3.58352       -2.38609
H         17.50662        6.44609       -6.28195
H         17.84333        6.55241       -4.52267
H         15.36945        7.88329       -6.24104
