49

C          0.71456       -0.13926        5.98731
C          2.21097       -0.41945        6.14256
C          2.84778       -1.01908        4.88320
C          4.35214       -1.26560        5.02868
C          4.98983       -1.91625        3.79632
C          6.49789       -2.13677        3.95303
C          7.13185       -2.86564        2.76233
C          8.63359       -3.13268        2.89604
S          9.03917       -3.99451        4.46483
C          8.27369       -5.64171        4.22957
C          8.29996       -6.49668        5.50180
C          7.68039       -5.85769        6.75735
C          6.21483       -5.46125        6.58530
S          5.53142       -4.58704        8.02067
O          4.18683       -4.17490        7.70647
O          5.86855       -5.30158        9.22563
Cl         6.71729       -2.84397        7.99325
C         10.82807       -4.34201        4.30950
C         11.65802       -3.07642        4.49840
H          0.28792        0.27906        6.90856
H          0.15714       -1.05778        5.75166
H          0.52396        0.58015        5.17731
H          2.37444       -1.10652        6.98965
H          2.73583        0.51493        6.40395
H          2.66571       -0.34916        4.02466
H          2.34239       -1.97002        4.63874
H          4.52907       -1.90450        5.90993
H          4.86096       -0.30891        5.24026
H          4.80154       -1.29537        2.90397
H          4.49744       -2.88535        3.59922
H          6.67644       -2.70294        4.88529
H          7.00460       -1.16805        4.10367
H          7.01531       -2.26484        1.84562
H          6.59810       -3.80791        2.55754
H          9.20116       -2.19354        2.97217
H          9.04262       -3.73404        2.07137
H          8.78440       -6.12941        3.38763
H          7.24685       -5.40904        3.91563
H          9.33233       -6.79840        5.73295
H          7.77130       -7.42926        5.24701
H          8.26149       -4.97055        7.05382
H          7.76701       -6.56954        7.58895
H          5.54684       -6.33232        6.49318
H          6.01701       -4.78279        5.74404
H         10.99457       -4.82885        3.33817
H         11.02229       -5.07229        5.10842
H         11.50923       -2.35343        3.68686
H         12.71992       -3.35530        4.49587
H         11.44330       -2.58572        5.45627
