71

C          0.51275        0.14483        0.21922
C          2.04031        0.07329        0.15171
C          2.70267        1.44392       -0.02412
C          4.23220        1.39125       -0.08996
C          4.88103        2.76759       -0.26506
C          6.41137        2.73283       -0.32447
C          7.04059        4.11855       -0.49583
C          8.57151        4.11060       -0.54757
C          9.17204        5.50910       -0.71692
C         10.70265        5.53883       -0.76305
C         11.26350        6.95307       -0.94022
C         12.79492        7.01831       -0.97290
C         13.36267        8.41262       -1.27811
C         13.04312        9.47095       -0.21549
C         13.59244       10.85957       -0.55654
C         13.24707       11.90842        0.50595
C         13.74506       13.30970        0.14329
C         13.40165       14.34173        1.25040
C         13.91392       15.68591        0.90929
N         15.11077       16.18101        1.28324
N         15.29011       17.35111        0.69102
N         14.22120       17.60438       -0.02521
N         13.31333       16.59703        0.10258
C         12.04648       16.61124       -0.63002
O         12.36649       16.43050       -1.97781
C         11.20739       16.50907       -2.83439
N         13.91934       18.77027       -0.68381
H          0.06619       -0.85079        0.34802
H          0.09234        0.58060       -0.69959
H          0.17924        0.76943        1.06155
H          2.34279       -0.58524       -0.68015
H          2.42866       -0.40242        1.06823
H          2.39670        2.10391        0.80727
H          2.31441        1.91976       -0.94231
H          4.54042        0.73312       -0.92144
H          4.62161        0.91774        0.82857
H          4.56532        3.42575        0.56397
H          4.49231        3.23820       -1.18560
H          6.73163        2.07957       -1.15511
H          6.80300        2.26408        0.59546
H          6.70987        4.77124        0.33176
H          6.64902        4.58330       -1.41820
H          8.90820        3.46363       -1.37646
H          8.96755        3.65010        0.37452
H          8.82290        6.15458        0.10895
H          8.77359        5.96424       -1.64123
H         11.06057        4.89580       -1.58585
H         11.10754        5.09642        0.16400
H         10.87489        7.58813       -0.12583
H         10.86468        7.38503       -1.87606
H         13.16714        6.31520       -1.73584
H         13.20005        6.65917       -0.01064
H         12.97550        8.75287       -2.25516
H         14.45695        8.34018       -1.39414
H         13.44856        9.14422        0.75814
H         11.95175        9.54684       -0.07942
H         13.18997       11.18003       -1.53352
H         14.68771       10.80806       -0.68005
H         13.67939       11.60718        1.47494
H         12.15350       11.93523        0.65392
H         13.30170       13.63649       -0.81224
H         14.83645       13.30077       -0.00301
H         13.87738       14.05321        2.19782
H         12.31539       14.37416        1.42299
H         11.55868       17.58439       -0.43310
H         11.43488       15.79495       -0.20660
H         11.58085       16.36659       -3.85248
H         10.72086       17.49382       -2.74986
H         10.48522       15.71387       -2.59221
H         14.50891       19.50932       -0.29169
H         14.08817       18.65568       -1.68892
