71

F          2.57638       -2.01790        0.77966
C          3.81658       -1.47753        1.12865
C          3.64129       -0.01313        1.51438
C          4.99288        0.64006        1.82119
C          4.90241        2.07573        2.34001
O          6.16109        2.62812        2.65592
C          6.83371        3.12653        1.49896
C          8.30051        3.30806        1.83453
C          9.24355        3.38966        0.61015
C         10.41788        2.38007        0.64052
C         10.04670        0.97397        0.12006
C          8.88941        0.23664        0.82133
C          8.67779       -1.15288        0.29065
C          8.76366       -2.31741        0.96141
C          9.09468       -2.44223        2.42570
C          8.53537       -3.62833        0.25482
C         11.60404        2.92520       -0.16648
N          6.09341        4.34517        1.06682
C          4.76881        4.16663        0.98167
N          3.95711        5.13888        0.51338
N          4.23910        2.99073        1.37221
C          6.72250        5.65576        0.82827
C          6.99893        5.96179       -0.65044
C          7.90943        7.19219       -0.81764
C          8.12206        7.54585       -2.27239
C          7.36662        8.55883       -2.87922
C          7.53209        8.85903       -4.23386
C          8.45689        8.14568       -5.00039
C          9.21935        7.13660       -4.40467
C          9.05251        6.84018       -3.05047
H          4.48772       -1.58864        0.26115
H          4.21821       -2.07008        1.96627
H          2.96899        0.04703        2.38577
H          3.13874        0.49319        0.67337
H          5.63428        0.61060        0.92658
H          5.52070        0.07550        2.60534
H          4.32577        2.10515        3.27969
H          6.73718        2.39794        0.67511
H          8.54411        2.41930        2.42992
H          8.43721        4.15570        2.52099
H          9.65581        4.40710        0.53732
H          8.67424        3.23470       -0.32304
H         10.74133        2.28354        1.69349
H         10.94357        0.33881        0.19010
H          9.82017        1.04988       -0.95875
H          7.95369        0.80207        0.66700
H          9.06034        0.21778        1.90839
H          8.44497       -1.20748       -0.77968
H          9.26274       -1.48135        2.92579
H          9.99973       -3.05472        2.56389
H          8.28758       -2.96726        2.96225
H          8.30168       -3.48753       -0.80797
H          7.70981       -4.19133        0.71972
H          9.42547       -4.27375        0.32713
H         11.32540        3.08795       -1.21947
H         12.44871        2.22334       -0.15573
H         11.95948        3.88277        0.23943
H          4.32210        5.87279       -0.08091
H          2.95146        5.04447        0.57377
H          3.26419        2.81168        1.15449
H          7.66345        5.66122        1.38952
H          6.09054        6.42995        1.29082
H          6.06212        6.13498       -1.20800
H          7.46930        5.08700       -1.12249
H          8.87836        6.98523       -0.33386
H          7.47186        8.05361       -0.28798
H          6.65235        9.13052       -2.28134
H          6.94487        9.65804       -4.68815
H          8.59161        8.38156       -6.05623
H          9.95321        6.58642       -4.99467
H          9.66348        6.06020       -2.58859
