103

C          0.05580        0.79714       -0.42501
C          1.58615        0.82022       -0.41463
C          2.20213        1.04060       -1.80094
C          3.73359        1.02977       -1.79924
C          4.35809        1.21985       -3.18554
C          5.88627        1.11739       -3.17946
C          6.53028        1.30137       -4.55697
C          8.05201        1.13211       -4.53938
C          8.71687        1.33303       -5.90367
C         10.24600        1.30626       -5.84264
C         10.90127        1.53017       -7.20770
C         12.41461        1.55880       -7.10695
O         12.96133        1.64289       -8.44375
C         14.32075        1.97059       -8.45541
C         14.81791        2.09231       -9.90944
N         16.28748        2.01466       -9.87782
C         16.86397        2.96181      -10.63541
N         18.17792        3.03776      -10.86551
N         15.95390        3.81493      -11.09619
C         14.58445        3.50344      -10.62839
C         14.01497        4.67826       -9.82766
C         12.49613        4.62703       -9.62115
C         11.98870        5.94183       -9.02262
S         10.30002        5.84217       -8.38435
C         10.57476        5.32286       -6.68509
S         12.10060        5.15075       -6.01851
N          9.42243        5.11287       -6.00719
C          8.07404        5.34550       -6.54113
C          7.44899        6.55365       -5.83542
O          7.42314        6.36417       -4.42493
C          8.73437        6.14242       -3.90568
C          9.39349        4.92074       -4.55129
C         14.24234        1.00674      -10.90834
C         14.45930       -0.55832      -10.68482
C         13.89619       -1.44603       -9.49285
C         12.31709       -1.64852       -9.37390
C         11.69435       -3.01367       -9.89994
C         11.78089       -4.35264       -9.05191
C         11.14752       -4.47069       -7.60059
C          9.65178       -4.03830       -7.37470
F          8.84564       -4.60477       -8.28615
F          9.27566       -4.43756       -6.14844
F          9.51844       -2.69764       -7.44111
F         11.22808       -5.78897       -7.29023
F         11.92084       -3.77924       -6.72376
F         11.17438       -5.28399       -9.83024
F         13.08451       -4.70073       -8.90589
F         10.37228       -2.76488      -10.09061
F         12.25029       -3.28224      -11.10945
F         11.97960       -1.49549       -8.07265
F         11.70789       -0.67151      -10.08854
F         14.49390       -2.65050       -9.65905
F         14.35751       -0.93343       -8.32182
F         14.06443       -1.15590      -11.82906
F         15.83205       -0.70090      -10.57459
F         12.94454        1.27190      -11.15662
F         14.91853        1.21047      -12.10240
H         -0.35157        0.62843        0.58139
H         -0.32702       -0.00281       -1.07637
H         -0.35639        1.74824       -0.79448
H          1.96535       -0.12920        0.00066
H          1.93998        1.60985        0.26997
H          1.84037        1.99923       -2.21347
H          1.83397        0.25926       -2.48949
H          4.08693        0.07415       -1.37286
H          4.10576        1.81700       -1.12005
H          4.05450        2.19926       -3.59556
H          3.94715        0.46280       -3.87665
H          6.18019        0.13411       -2.77211
H          6.30092        1.86667       -2.48190
H          6.27633        2.30334       -4.94880
H          6.08988        0.58025       -5.26791
H          8.30481        0.12876       -4.15508
H          8.48747        1.84196       -3.81258
H          8.39193        2.29509       -6.33692
H          8.36134        0.55801       -6.60464
H         10.57870        0.33912       -5.42742
H         10.59882        2.07901       -5.13842
H         10.55642        2.48477       -7.63601
H         10.59439        0.73954       -7.90819
H         12.80713        0.64977       -6.61636
H         12.74044        2.44139       -6.52790
H         14.93437        1.20287       -7.94740
H         14.52152        2.92491       -7.93203
H         16.75737        1.14680       -9.63924
H         18.81772        2.35267      -10.48353
H         18.56449        3.75310      -11.46827
H         16.18472        4.69997      -11.53366
H         13.94724        3.34591      -11.50826
H         14.26079        5.58521      -10.40912
H         14.53335        4.79226       -8.86274
H         12.23667        3.79616       -8.95690
H         11.99283        4.42893      -10.58073
H         11.96214        6.75231       -9.76595
H         12.61236        6.25439       -8.16953
H          7.47254        4.44436       -6.33919
H          8.10537        5.49503       -7.62663
H          6.40577        6.68337       -6.15268
H          8.01806        7.46776       -6.09506
H          8.61641        5.98517       -2.82554
H          9.36908        7.03467       -4.06924
H          8.80269        4.01767       -4.33500
H         10.42110        4.78364       -4.19642
