93

C          0.60213       -0.09736        0.10115
C          2.12416       -0.24580        0.02508
C          2.76099        0.59923       -1.08398
C          4.28344        0.45341       -1.17790
C          4.91045        1.29833       -2.29149
C          6.42956        1.13916       -2.41271
C          7.03933        1.98730       -3.53284
C          8.55572        1.82960       -3.68546
C          9.13317        2.68151       -4.81952
C         10.64398        2.52877       -5.02194
C         11.17696        3.40329       -6.16022
C         12.68075        3.26970       -6.41961
C         13.16589        4.20714       -7.52895
C         14.66080        4.10547       -7.84679
C         15.09823        5.12801       -8.90074
C         16.59334        5.07786       -9.23964
C         17.03028        6.10918      -10.29629
C         16.90013        7.53422       -9.77237
N         17.29406        8.57772      -10.80361
C         16.48431        8.52207      -12.04326
C         15.10162        8.65621      -12.03281
C         14.40687        8.60745      -13.24333
C         15.10882        8.42695      -14.43710
C         16.49967        8.29351      -14.44769
C         17.20272        8.34103      -13.23912
O         18.55373        8.22374      -13.08668
C         19.37413        8.07964      -14.26262
C         17.35850        9.99221      -10.24732
C         18.40717       10.17109       -9.15434
C         18.91223       11.63572       -9.19351
O         19.04088       12.21280      -10.26915
N         19.21102       12.15318       -7.96822
C         19.75459       13.42034       -7.62966
C         20.08669       14.39770       -8.58033
C         20.61597       15.61388       -8.14237
C         20.81644       15.86784       -6.78392
C         20.48270       14.88871       -5.84365
C         19.95445       13.67021       -6.26218
H          0.17406       -0.71973        0.89901
H          0.12450       -0.39485       -0.84440
H          0.31227        0.94495        0.30177
H          2.38372       -1.30628       -0.13350
H          2.57110        0.03171        0.99493
H          2.50480        1.66177       -0.92390
H          2.30883        0.32490       -2.05384
H          4.53842       -0.60899       -1.33912
H          4.73829        0.72846       -0.20984
H          4.66856        2.36241       -2.12131
H          4.44071        1.03479       -3.25570
H          6.67214        0.07604       -2.58654
H          6.90474        1.40349       -1.45166
H          6.80142        3.05098       -3.35396
H          6.55171        1.72857       -4.48953
H          8.79721        0.76720       -3.86531
H          9.05181        2.09558       -2.73541
H          8.89969        3.74418       -4.62880
H          8.61628        2.42673       -5.76175
H         10.88272        1.47041       -5.22661
H         11.17033        2.78231       -4.08494
H         10.94176        4.46034       -5.94143
H         10.62913        3.16179       -7.08836
H         12.91926        2.22534       -6.68523
H         13.23743        3.48146       -5.48998
H         12.92996        5.24795       -7.24292
H         12.58692        4.01138       -8.44854
H         14.90135        3.08656       -8.19492
H         15.24679        4.25846       -6.92370
H         14.82101        6.13152       -8.53185
H         14.51374        4.97500       -9.82509
H         16.84764        4.07666       -9.61928
H         17.19194        5.21074       -8.32194
H         16.41880        5.98777      -11.20370
H         18.07761        5.92372      -10.58624
H         17.55623        7.69355       -8.90662
H         15.87397        7.77494       -9.46829
H         18.25117        8.34899      -11.13061
H         14.56037        8.79447      -11.09618
H         13.32319        8.71176      -13.24999
H         14.56824        8.38899      -15.38275
H         17.02655        8.15356      -15.38981
H         20.40277        8.02229      -13.89535
H         19.26383        8.95296      -14.92077
H         19.12142        7.15629      -14.80329
H         16.34780       10.24563       -9.90429
H         17.61936       10.64359      -11.09267
H         19.29179        9.54391       -9.36385
H         18.03077        9.88929       -8.16170
H         19.03583       11.54982       -7.16992
H         19.93076       14.20490       -9.63786
H         20.87406       16.37235       -8.88199
H         21.22909       16.82235       -6.45769
H         20.63330       15.07215       -4.77965
H         19.69498       12.90689       -5.52400
