45

Br         3.41146        1.77095       -0.51500
C          2.70929       -0.04620       -0.22392
C          3.32043       -1.05526       -1.18663
C          4.82943       -1.23643       -0.97985
C          5.51501       -2.17470       -1.99343
C          5.42811       -1.68011       -3.45480
C          5.92453       -0.25010       -3.71392
N          5.76438        0.05218       -5.12879
N          6.97587       -2.22402       -1.62451
C          7.48734       -3.40393       -1.54431
C          6.48912       -4.45609       -1.80652
C          5.13754       -3.68999       -1.79935
C          4.10753       -4.27283       -2.76730
C          3.74330       -5.70432       -2.37439
O          4.19181       -6.27027       -1.39249
O          2.88771       -6.23090       -3.25978
C          2.45225       -7.61473       -3.02467
C          1.19634       -7.67162       -2.16972
C          0.71282       -9.11695       -2.01341
H          1.62807        0.03941       -0.36649
H          2.92304       -0.27739        0.82573
H          3.10122       -0.74005       -2.21733
H          2.79503       -2.01179       -1.02320
H          5.01215       -1.62977        0.03369
H          5.30300       -0.24210       -1.02270
H          4.38164       -1.74104       -3.78386
H          5.98881       -2.37776       -4.09977
H          6.96956       -0.13205       -3.34359
H          5.31336        0.46818       -3.14786
H          6.44867       -0.43432       -5.70792
H          5.85953        1.04945       -5.31426
H          7.51749       -1.36461       -1.50503
H          8.54861       -3.54266       -1.32266
H          6.52993       -5.27517       -1.07432
H          6.72686       -4.92776       -2.77992
H          4.73108       -3.79073       -0.78124
H          4.46925       -4.27991       -3.80644
H          3.18079       -3.68022       -2.77498
H          3.28174       -8.16321       -2.55892
H          2.27025       -8.00553       -4.03387
H          0.41312       -7.05655       -2.63828
H          1.41035       -7.23621       -1.18196
H          0.47967       -9.56999       -2.98758
H         -0.19736       -9.15769       -1.40227
H          1.47157       -9.74307       -1.52314
