59

C          0.62929        0.40685        0.69464
C          2.15880        0.35246        0.71593
C          2.81692        1.73294        0.61074
C          4.34796        1.68667        0.64475
C          5.00719        3.06654        0.54938
C          6.53706        3.01632        0.62117
C          7.20034        4.39430        0.52697
C          8.72435        4.34226        0.67354
C          9.39067        5.71882        0.57014
C         10.90576        5.66934        0.81259
C         11.58444        7.03319        0.76620
N         11.06145        7.97016        1.85409
C         11.80810        7.76901        3.15972
C         11.18137        8.45168        4.38242
C          9.72556        8.11939        4.72599
C          9.38393        6.62033        5.01287
Br        10.49704        5.83728        6.40475
F          8.08938        6.47935        5.32110
F          9.59534        5.91746        3.84708
Br         9.15185        9.22060        6.21918
F          8.92605        8.45657        3.61496
C         11.02763        9.41256        1.40067
C          9.80149        9.67998        0.53044
C          9.76542       11.13146        0.06262
F          9.73111       11.98637        1.11778
F         10.86741       11.43554       -0.67144
F          8.67883       11.35944       -0.69750
H          0.18972       -0.59689        0.77215
H          0.25809        0.85990       -0.23662
H          0.23854        1.00545        1.53084
H          2.51733       -0.28376       -0.11081
H          2.49757       -0.13995        1.64319
H          2.45290        2.37276        1.43423
H          2.48543        2.22465       -0.32093
H          4.71325        1.05019       -0.18028
H          4.67602        1.19067        1.57534
H          4.62614        3.70952        1.36255
H          4.69951        3.55557       -0.39155
H          6.92187        2.37085       -0.18749
H          6.84052        2.53069        1.56535
H          6.78381        5.05345        1.30971
H          6.93756        4.86334       -0.43725
H          9.15148        3.67659       -0.09547
H          8.98244        3.89001        1.64652
H          8.89220        6.38387        1.30298
H          9.19014        6.15918       -0.42188
H         11.38610        5.05781        0.03306
H         11.12591        5.15690        1.76288
H         11.38745        7.53026       -0.19232
H         12.67291        6.97750        0.90088
H         10.08192        7.69101        2.03045
H         12.81857        8.17119        3.00611
H         11.89032        6.68619        3.30302
H         11.23324        9.54511        4.29777
H         11.80815        8.18863        5.24502
H         11.96855        9.60840        0.87055
H         10.99417       10.04661        2.29286
H          8.87610        9.49694        1.09521
H          9.78233        9.05258       -0.37132
