54

F          2.53440        2.35892       -1.34557
C          2.15108        1.20848       -0.63885
C          2.77076        1.20900        0.76270
C          4.28143        1.20087        0.79233
N          4.88483        2.43938        0.91144
C          4.11332        3.72729        1.00274
C          3.80347        4.11824        2.44656
C          3.16356        5.50964        2.52685
C          2.69132        5.84349        3.94831
N          1.62565        4.92268        4.36657
C          6.22771        2.59152        1.00462
C          7.06184        1.49888        0.97306
C          6.49001        0.24171        0.82529
C          5.10118        0.04037        0.71934
C          4.65119       -1.42839        0.46809
C          4.75508       -1.74657       -1.06750
C          6.03231       -1.48061       -1.89828
C          7.13827       -2.53327       -1.72284
C          5.63760       -1.40377       -3.38344
C          5.55004       -2.39099        1.28892
O          5.44484       -2.02486        2.66442
C          3.20914       -1.80137        0.88899
H          2.47249        0.34275       -1.23465
H          1.05402        1.21187       -0.56193
H          2.39918        0.32592        1.28787
H          2.38373        2.06665        1.32322
H          3.21776        3.64468        0.38255
H          4.75362        4.48006        0.52418
H          4.73587        4.10714        3.03534
H          3.12376        3.39094        2.91680
H          2.29926        5.56570        1.84283
H          3.87707        6.27876        2.19045
H          2.39994        6.90892        3.98225
H          3.53403        5.72682        4.64753
H          0.72978        5.21408        3.97234
H          1.50969        4.94258        5.37952
H          6.58760        3.61358        1.10244
H          8.13888        1.63258        1.05574
H          7.15479       -0.61733        0.79574
H          3.93514       -1.18605       -1.54395
H          4.48152       -2.81001       -1.18172
H          6.44306       -0.49274       -1.62471
H          6.74958       -3.54369       -1.92140
H          7.58480       -2.54238       -0.71981
H          7.95488       -2.35065       -2.43454
H          5.19897       -2.35444       -3.72313
H          6.51559       -1.20207       -4.01154
H          4.90086       -0.60892       -3.56753
H          6.60028       -2.38081        0.96213
H          5.17617       -3.41372        1.11020
H          5.91250       -2.68312        3.20138
H          2.44279       -1.37049        0.23622
H          3.00188       -1.54939        1.93616
H          3.10467       -2.89079        0.79662
