47

O          3.04907       -0.86770       -1.00104
C          3.99504       -1.23106        0.03049
C          3.46616       -0.75238        1.38954
C          2.06332       -1.34377        1.71423
C          0.90929       -0.34058        1.61476
Br        -0.81516       -1.45080        1.68615
C          0.83663        0.67449        2.75084
C         -0.25414        1.70560        2.50141
N         -0.17777        2.25505        1.13436
C          0.42178        1.57446        0.14698
N          0.53071        2.08862       -1.09120
N          0.95956        0.35455        0.36644
C         -0.88428        3.51312        0.85690
C         -2.24162        3.31200        0.16252
C         -2.80841        4.66112       -0.31325
S         -3.75934        4.57343       -1.85044
C         -2.49506        4.49776       -3.06904
S         -0.86189        4.66347       -2.80310
N         -3.01991        4.35280       -4.34999
C         -4.30907        3.91073       -4.71000
N         -4.46150        3.87921       -6.00143
C         -3.25497        4.32353       -6.53906
C         -2.35219        4.60344       -5.55582
O          4.42442       -1.03517        2.39998
H          3.28045       -1.33526       -1.81799
H          4.97217       -0.76391       -0.16244
H          4.12252       -2.32818        0.05544
H          3.41535        0.34826        1.36817
H          2.07687       -1.73237        2.74064
H          1.84903       -2.19267        1.05028
H          1.81870        1.17103        2.82244
H          0.65014        0.16531        3.70304
H         -0.13966        2.54856        3.19598
H         -1.24903        1.26119        2.66045
H          0.04699        2.94068       -1.39331
H          0.93546        1.52072       -1.82495
H          1.50667       -0.09136       -0.38502
H         -0.24083        4.16234        0.24248
H         -1.00552        4.02422        1.82068
H         -2.94820        2.81207        0.83928
H         -2.11238        2.64298       -0.69910
H         -2.00861        5.39565       -0.49101
H         -3.51641        5.09199        0.40808
H         -5.03730        3.59524       -3.96827
H         -3.12039        4.41544       -7.61219
H         -1.33503        4.97300       -5.56379
H          4.55833       -1.99635        2.45959
