36

C          4.57641       -1.17966       -2.15239
C          4.14245       -1.45339       -0.71360
N          2.67981       -1.30017       -0.52204
C          1.89304       -2.35556       -0.63733
O          2.28917       -3.53633       -0.92051
C          0.39621       -2.36513       -0.45325
P          0.21013       -4.16346       -0.81158
C          0.75300       -5.45761        0.35241
C          0.67577       -4.98072        1.81390
C          0.74395       -6.12758        2.83086
C          2.02921       -7.02398        2.79231
Br         3.68656       -5.97462        2.89509
F          2.00982       -7.92506        3.78209
F          2.03765       -7.70948        1.61507
Br         0.53856       -5.36655        4.62399
F         -0.31057       -6.98452        2.60059
Br        -2.01158       -4.37359       -0.76182
C          2.15160        0.04084       -0.19646
C          2.21599        0.36014        1.29591
H          5.66802       -1.26816       -2.22510
H          4.30260       -0.16746       -2.47918
H          4.13074       -1.90585       -2.84416
H          4.62573       -0.75937       -0.01264
H          4.40712       -2.47406       -0.41212
H         -0.18555       -1.77975       -1.17966
H          0.03199       -2.11775        0.55388
H          0.44168       -4.48643       -2.16056
H          1.77192       -5.73072        0.05356
H          0.07400       -6.30397        0.17340
H         -0.28841       -4.48956        2.01044
H          1.47959       -4.26810        2.03567
H          1.12110        0.10869       -0.57009
H          2.73941        0.76302       -0.78000
H          1.60449       -0.33797        1.88391
H          1.83594        1.37468        1.47205
H          3.24460        0.31830        1.67677
