50

C         13.80291       -1.83680        1.30417
C         13.19545       -2.36300        2.60719
C         11.66791       -2.52448        2.51311
C         11.09845       -3.04602        3.81694
O          9.59587       -3.07666        3.75926
C          9.03940       -4.17233        3.31194
O          9.47471       -5.21798        2.92897
S          7.15046       -3.83813        3.35964
C          6.56191       -5.20176        2.29482
C          5.03366       -5.26925        2.26968
C          4.54950       -6.33770        1.27176
C          3.02068       -6.49655        1.27261
C          2.26136       -5.29291        0.69990
C          0.75398       -5.43233        0.90479
O          0.02572       -4.32226        0.33274
C         -0.01547       -3.18363        1.08962
O          0.54359       -3.07045        2.16746
C         -0.82640       -2.14810        0.40550
C         -1.02225       -0.94696        0.96102
C          6.77472       -4.43567        5.06356
C          7.25173       -3.46155        6.13175
H         14.89085       -1.72743        1.39810
H         13.39087       -0.85298        1.03807
H         13.60856       -2.52113        0.46599
H         13.43919       -1.67601        3.43396
H         13.65199       -3.33236        2.86494
H         11.41863       -3.21869        1.69474
H         11.20353       -1.55411        2.27711
H         11.28533       -2.37071        4.66002
H         11.43784       -4.06068        4.06089
H          7.04214       -6.12617        2.64500
H          6.97432       -4.95043        1.30560
H          4.62045       -4.28481        2.00293
H          4.64488       -5.52049        3.26898
H          5.01349       -7.30390        1.52674
H          4.89943       -6.08040        0.25811
H          2.68276       -6.69212        2.30525
H          2.76674       -7.40022        0.69689
H          2.47540       -5.18748       -0.37557
H          2.57910       -4.36081        1.18966
H          0.51591       -5.49951        1.97681
H          0.35719       -6.31661        0.38853
H         -1.25558       -2.41958       -0.55961
H         -0.58492       -0.70702        1.93148
H         -1.62287       -0.18377        0.46748
H          7.21183       -5.43944        5.15596
H          5.67915       -4.52266        5.05593
H          8.34454       -3.38609        6.17221
H          6.90565       -3.83210        7.10603
H          6.83252       -2.45770        5.98761
