40

O          3.95945       -2.46129        0.22451
C          3.77164       -1.05374        0.08823
C          4.47486       -0.41073        1.27576
O          4.37019        1.00472        1.12279
C          4.88579        1.75336        2.20284
C          6.42326        1.84995        2.17100
C          6.94083        2.78047        3.26169
O          6.59443        4.11821        2.90007
C          6.75974        5.02909        3.97330
C          8.22651        5.12156        4.36428
N          8.73852        3.73439        4.67884
C          8.45679        2.66388        3.60834
C          8.87758        1.30365        4.19467
C          8.03281        0.77986        5.36325
N          9.31532        3.13104        2.46983
O         10.66487        3.19388        3.05755
O          9.32001        2.06183        1.55230
H          3.44673       -2.90866       -0.46502
H          2.70334       -0.77653        0.10051
H          4.21602       -0.66953       -0.84749
H          5.52851       -0.74773        1.29153
H          3.99682       -0.73313        2.22011
H          4.55333        1.32434        3.17106
H          4.45160        2.75881        2.10996
H          6.73392        2.23120        1.18957
H          6.86615        0.85180        2.28891
H          6.41795        2.53162        4.21099
H          6.13841        4.72989        4.84146
H          6.41070        6.01036        3.62674
H          8.38909        5.74415        5.25391
H          8.82982        5.49680        3.53062
H          8.33845        3.39294        5.56385
H          9.77130        3.74974        4.75730
H          9.93466        1.37360        4.49211
H          8.85375        0.58394        3.36682
H          7.98809        1.46894        6.22395
H          8.48195       -0.14563        5.74440
H          7.00225        0.54419        5.06996
H         11.11244        3.84707        2.48975
H          9.35505        2.50900        0.68641
