97

C         16.17116       -3.08602        5.55297
C         15.11829       -2.89592        4.45777
C         15.69269       -2.32198        3.15767
C         14.64831       -2.12534        2.05378
C         15.23083       -1.54592        0.76064
C         14.19831       -1.35780       -0.35618
C         14.79906       -0.76852       -1.63644
C         13.79849       -0.62987       -2.78938
C         14.42852       -0.02231       -4.04745
C         13.47914        0.04024       -5.25028
C         14.16777        0.63089       -6.48663
C         13.24679        0.61492       -7.71121
N         13.94471        1.12562       -8.91474
C         14.80370        0.50255       -9.74957
C         15.12664       -0.95653       -9.74720
O         13.90352       -1.65946       -9.74325
C         14.06267       -3.08240       -9.96504
C         12.68767       -3.67633      -10.20888
C         12.73573       -5.17701      -10.52790
C         11.37434       -5.72342      -10.97311
C         11.39518       -7.20868      -11.34739
C         10.05637       -7.70698      -11.90085
C         10.05871       -9.18565      -12.30125
C          8.74673       -9.63826      -12.95034
C          8.72545      -11.12003      -13.34129
C          7.42879      -11.54072      -14.03833
N         15.29527        1.39886      -10.62368
N         14.75692        2.57164      -10.34288
N         13.93881        2.41666       -9.32597
C         13.16104        3.56626       -8.71656
O         13.61435        3.89870       -7.46964
C         14.90588        4.59699       -7.41108
C         14.97094        5.89174       -8.20775
C         13.91873        6.94060       -7.82890
C         14.06825        8.24600       -8.61955
C         13.01161        9.29274       -8.25966
H         15.72928       -3.50225        6.46847
H         16.64735       -2.13044        5.81893
H         16.96788       -3.77148        5.22745
H         14.31934       -2.23011        4.82591
H         14.63024       -3.86177        4.24306
H         16.49236       -2.98870        2.78841
H         16.18312       -1.35584        3.37262
H         13.84609       -1.46231        2.42258
H         14.16257       -3.09249        1.83438
H         16.03946       -2.20533        0.39877
H         15.71101       -0.57588        0.98032
H         13.38345       -0.70437        0.00182
H         13.72737       -2.32990       -0.58599
H         15.64105       -1.40276       -1.96623
H         15.23724        0.21986       -1.41159
H         12.94369       -0.01010       -2.46808
H         13.38062       -1.62262       -3.03133
H         15.31983       -0.61192       -4.32475
H         14.79630        0.99292       -3.81879
H         12.59131        0.64351       -4.99600
H         13.11002       -0.97376       -5.48035
H         15.07607        0.04925       -6.71262
H         14.48422        1.66527       -6.28629
H         12.35265        1.23258       -7.56114
H         12.92886       -0.40057       -7.98142
H         15.75881       -1.20135       -8.86771
H         15.72819       -1.15291      -10.65294
H         14.56028       -3.53564       -9.08765
H         14.71606       -3.23332      -10.84399
H         12.22513       -3.13595      -11.05053
H         12.05016       -3.49690       -9.32786
H         13.09565       -5.73740       -9.64846
H         13.47346       -5.35834      -11.32880
H         11.02384       -5.13844      -11.84175
H         10.62981       -5.55451      -10.17543
H         11.68041       -7.80918      -10.46604
H         12.18468       -7.38244      -12.09980
H          9.78227       -7.09565      -12.77894
H          9.26176       -7.53192      -11.15425
H         10.26489       -9.80714      -11.41217
H         10.89287       -9.37306      -13.00033
H          8.55786       -9.02401      -13.84881
H          7.90661       -9.43118      -12.26376
H          8.87855      -11.73657      -12.43933
H          9.58383      -11.33334      -14.00102
H          6.55348      -11.36841      -13.39419
H          7.44093      -12.60709      -14.30229
H          7.27227      -10.97127      -14.96670
H         12.11574        3.24033       -8.63920
H         13.26743        4.34288       -9.48950
H         15.69741        3.89560       -7.72571
H         15.02299        4.78433       -6.33622
H         14.94229        5.68690       -9.29225
H         15.98236        6.29650       -8.03209
H         13.98893        7.15146       -6.74797
H         12.90403        6.53610       -7.98586
H         14.01645        8.02465       -9.69939
H         15.07514        8.66036       -8.44530
H         11.99539        8.92463       -8.46425
H         13.15222       10.21504       -8.83818
H         13.05957        9.55950       -7.19374
