72

C          2.96598       -4.33118        2.18755
C          4.34376       -3.71559        1.93203
C          4.66477       -2.53826        2.85963
C          6.03815       -1.91114        2.60286
C          6.35537       -0.72187        3.51543
C          7.72075       -0.08878        3.23221
C          8.04070        1.12211        4.11436
C          9.40206        1.74884        3.79904
C          9.73280        2.97934        4.65003
C         11.09590        3.58533        4.30351
C         11.44423        4.82523        5.13117
C         12.82676        5.39645        4.73804
C         13.21355        6.59176        5.53202
N         13.06704        7.83953        5.12460
N         13.47609        8.61328        6.16786
C         13.86504        7.86902        7.19385
N         13.71487        6.57724        6.82794
C         14.08224        5.40789        7.65460
C         15.41166        4.77060        7.22399
C         16.61375        5.69554        7.15865
Br        16.92194        6.73894        8.79213
Br        15.69898        3.26288        8.44698
C         13.42105       10.08467        6.07285
C         12.00010       10.59353        5.82440
C         10.99132       10.23439        6.91943
C          9.59690       10.81243        6.64841
C          8.56216       10.44301        7.71715
C          7.17842       11.03872        7.44549
H          2.76783       -5.17280        1.50988
H          2.16512       -3.59109        2.04044
H          2.88112       -4.70727        3.21805
H          4.40890       -3.37825        0.88360
H          5.12125       -4.48991        2.04747
H          4.60565       -2.87486        3.90984
H          3.88434       -1.76462        2.74768
H          6.09803       -1.58517        1.54945
H          6.82007       -2.68172        2.72359
H          6.31189       -1.04604        4.57002
H          5.56785        0.04400        3.40245
H          7.76578        0.21536        2.17164
H          8.50980       -0.85071        3.35977
H          8.01026        0.82314        5.17676
H          7.25040        1.88332        3.99107
H          9.43355        2.02926        2.73172
H         10.19280        0.99017        3.93450
H          9.71151        2.70534        5.71929
H          8.94653        3.74198        4.51453
H         11.11766        3.84895        3.23230
H         11.88139        2.82212        4.44439
H         11.42805        4.57143        6.20449
H         10.68398        5.60898        4.98696
H         12.81709        5.70288        3.68320
H         13.59398        4.61285        4.83309
H         14.25950        8.21739        8.14282
H         13.27191        4.67295        7.59039
H         14.15248        5.75199        8.69351
H         15.31289        4.29804        6.23649
H         16.49082        6.43168        6.35310
H         17.53332        5.12985        6.98443
H         14.09826       10.37217        5.25710
H         13.83319       10.46467        7.01804
H         11.65605       10.22241        4.84703
H         12.08019       11.68759        5.72752
H         11.35649       10.59996        7.89578
H         10.90960        9.13641        7.01110
H          9.24497       10.46364        5.66201
H          9.66843       11.91090        6.57228
H          8.92189       10.78076        8.70359
H          8.48450        9.34413        7.78211
H          7.21470       12.13730        7.41727
H          6.46019       10.75112        8.22429
H          6.77702       10.69614        6.48056
