91

C          0.75547       -0.08877        0.04878
C          2.28490       -0.14684        0.07254
C          2.88988       -0.73121       -1.20852
C          4.42103       -0.77928       -1.20370
C          5.01868       -1.35604       -2.49082
C          6.55042       -1.38503       -2.50478
C          7.13457       -1.94663       -3.80470
C          8.66604       -1.96665       -3.84226
C          9.22889       -2.51745       -5.15629
C         10.75962       -2.53692       -5.21984
C         11.29545       -3.07656       -6.54974
C         12.82536       -3.10871       -6.63763
C         13.32640       -3.64463       -7.98292
C         14.85350       -3.69593       -8.09094
C         15.30681       -4.24348       -9.46436
C         16.78128       -4.33264       -9.60430
N         17.63794       -3.25839       -9.69940
C         18.89982       -3.73188       -9.80705
N         18.78761       -5.06210       -9.76392
N         17.49327       -5.45008       -9.62788
C         19.90197       -6.09475       -9.71723
O         20.73877       -5.87543       -8.65402
C         20.22409       -6.25746       -7.34930
C         21.30209       -5.93664       -6.33122
C         20.89893       -6.27406       -4.89109
C         21.99446       -5.90306       -3.88477
C         21.63708       -6.21433       -2.42851
C         22.74236       -5.81774       -1.44416
C         22.40983       -6.12075        0.02082
C         23.52602       -5.71283        0.98548
C         20.15209       -2.93031      -10.00598
O         21.15270       -3.40712      -10.48726
O         19.93397       -1.67585       -9.59586
C         21.08644       -0.74457       -9.68830
C         21.96424       -0.85499       -8.45830
H          0.35242        0.33294        0.97992
H          0.31961       -1.09132       -0.07691
H          0.39213        0.53405       -0.78233
H          2.61839       -0.74569        0.93711
H          2.68987        0.86660        0.23465
H          2.54726       -0.13797       -2.07502
H          2.49245       -1.74957       -1.36687
H          4.76604       -1.37555       -0.34052
H          4.81670        0.23926       -1.04293
H          4.65966       -0.76700       -3.35332
H          4.63331       -2.37936       -2.64548
H          6.91413       -1.98280       -1.65045
H          6.93592       -0.36282       -2.34299
H          6.75926       -1.35270       -4.65683
H          6.75353       -2.97106       -3.96258
H          9.04673       -2.56853       -2.99838
H          9.04920       -0.94359       -3.68059
H          8.83883       -1.91738       -5.99732
H          8.84605       -3.54097       -5.31526
H         11.15458       -3.14764       -4.38912
H         11.14640       -1.51569       -5.05585
H         10.89739       -2.46341       -7.37720
H         10.90238       -4.09512       -6.71381
H         13.22847       -3.73097       -5.81994
H         13.22469       -2.09240       -6.47377
H         12.92452       -3.01967       -8.79918
H         12.91985       -4.65716       -8.14726
H         15.26990       -4.33376       -7.29492
H         15.27093       -2.68602       -7.93420
H         14.90758       -3.60874      -10.27238
H         14.90843       -5.25462       -9.62336
H         17.39701       -2.26861       -9.69033
H         20.47954       -5.97727      -10.64160
H         19.35350       -7.05036       -9.69328
H         19.97522       -7.33316       -7.36552
H         19.29701       -5.69386       -7.13578
H         21.54649       -4.86428       -6.40839
H         22.21700       -6.48510       -6.60498
H         20.67250       -7.35079       -4.80951
H         19.96622       -5.74411       -4.62915
H         22.22280       -4.82688       -3.98093
H         22.92499       -6.43259       -4.15278
H         21.42258       -7.29228       -2.32534
H         20.70186       -5.69217       -2.15954
H         22.95565       -4.73933       -1.55208
H         23.67740       -6.33709       -1.71878
H         22.20162       -7.19837        0.13057
H         21.47524       -5.60314        0.29628
H         24.46442       -6.23899        0.75589
H         23.26330       -5.94356        2.02668
H         23.73057       -4.63338        0.92659
H         20.60460        0.23552       -9.77363
H         21.62758       -0.97725      -10.61353
H         21.39223       -0.66446       -7.54117
H         22.75846       -0.09858       -8.52440
H         22.44428       -1.83941       -8.39096
