50

C          0.49065        1.51552       -1.06934
C          2.01963        1.46882       -1.13072
C          2.66125        1.29349        0.25382
C          4.18845        1.30513        0.17144
S          4.85639        0.99369        1.85422
C          6.52237        1.35347        1.59642
N          7.15326        1.78268        0.52670
N          8.48705        1.91474        0.88677
C          8.57991        1.56420        2.13239
O          7.37022        1.19158        2.67687
C          9.81061        1.51289        2.95783
O         10.26001        0.15163        3.24199
C          9.80622       -0.19434        4.50450
N         10.14833        1.09184        5.32467
C          9.64544        2.15252        4.36762
C         11.61159        1.26326        5.71842
C         11.92516        0.67144        7.08757
C         13.38207        0.94269        7.49603
C         13.71045        0.37887        8.88061
C         10.42306       -1.49748        4.99109
O          9.74124       -2.50624        4.29304
C         10.27331       -3.81138        4.54624
H          0.06005        1.62784       -2.07310
H          0.13902        2.36177       -0.46122
H          0.07745        0.59509       -0.63152
H          2.40104        2.39324       -1.59480
H          2.34068        0.64267       -1.78619
H          2.31383        0.34615        0.69991
H          2.32226        2.09942        0.92491
H          4.57688        2.27332       -0.16953
H          4.57300        0.51838       -0.49092
H         10.61100        1.97876        2.37071
H          8.70349       -0.26830        4.56476
H          9.58404        1.11027        6.18470
H         10.22570        3.07053        4.49383
H          8.59268        2.34735        4.60187
H         11.79863        2.34522        5.72327
H         12.20878        0.82267        4.90904
H         11.74628       -0.41339        7.09995
H         11.24870        1.11519        7.83996
H         13.57007        2.02848        7.48049
H         14.05609        0.50124        6.74392
H         13.08252        0.83437        9.65972
H         14.75756        0.57487        9.14230
H         13.55743       -0.70927        8.91837
H         10.27574       -1.59522        6.08707
H         11.51069       -1.51106        4.78083
H          9.66547       -4.50916        3.96147
H         10.20131       -4.07063        5.61662
H         11.32503       -3.88053        4.22121
