52

C          7.61088        7.87259       -0.03408
C          7.72320        6.37404       -0.32219
C          8.20687        6.06778       -1.74506
C          8.32036        4.56344       -2.02655
C          8.80833        4.29320       -3.44006
O          9.00103        2.85115       -3.66684
C          7.94900        2.15179       -4.16245
O          6.86732        2.60578       -4.44564
C          8.34514        0.67582       -4.32536
N          9.09915        0.41979       -5.55302
C         10.42855        0.58120       -5.67665
N         11.14005        1.19111       -4.71415
C         12.57620        1.44862       -4.77759
C         13.02650        2.05124       -3.43864
C         14.54094        2.30257       -3.41405
O         15.27675        1.11741       -3.70389
O         12.29000        3.24062       -3.14390
N         11.05149        0.10590       -6.78105
C         10.39824       -0.29608       -8.03597
C          9.87218       -1.73444       -8.09372
O          8.71223       -1.76373       -7.23046
C          9.50992       -2.13594       -9.51904
H          7.26005        8.05582        0.99017
H          6.90229        8.36069       -0.71914
H          8.58190        8.37711       -0.14685
H          6.74429        5.89219       -0.16289
H          8.41218        5.90790        0.40197
H          9.18703        6.54966       -1.90767
H          7.51575        6.52821       -2.47178
H          7.33907        4.08382       -1.88385
H          9.01826        4.09873       -1.31162
H          9.80476        4.71830       -3.61391
H          8.10494        4.66281       -4.19777
H          7.41832        0.09754       -4.39077
H          8.91260        0.33938       -3.44275
H          8.68854       -0.27641       -6.18966
H         10.61205        1.79671       -4.07280
H         12.82164        2.15237       -5.59673
H         13.13248        0.51224       -4.94009
H         12.76280        1.34363       -2.63572
H         14.81023        2.73681       -2.43934
H         14.80110        3.04463       -4.19145
H         15.57666        0.71864       -2.87356
H         12.67623        3.97883       -3.64592
H         12.04333        0.30363       -6.83895
H         11.15099       -0.16745       -8.82296
H          9.57129        0.39805       -8.26018
H         10.64427       -2.41212       -7.68729
H          8.29938       -2.64118       -7.26621
H          8.77065       -1.44597       -9.94907
H          9.08260       -3.14802       -9.53547
H         10.39914       -2.14838      -10.16445
