41

C          5.36313        1.31995        1.43684
C          4.31116        0.75681        0.47500
C          2.82932        0.87094        0.92252
C          2.64190       -0.01691        2.15612
N          1.22802       -0.06103        2.75726
C          0.12836       -0.64274        1.89972
C          0.34747       -2.08824        1.36213
F          1.31660       -2.09211        0.41298
F          0.73930       -2.88813        2.39722
F         -0.99599       -0.64572        2.65802
F         -0.06707        0.19066        0.86173
C          1.24170       -0.56560        4.17888
C          1.05995        0.71102        5.04343
O          0.84120        1.75075        4.40797
C          1.13710        0.63856        6.49705
C          0.94152        1.82425        7.24094
C          1.01036        1.79054        8.62807
C          1.27342        0.58097        9.28606
C          1.46618       -0.59951        8.55781
C          1.39933       -0.57535        7.16792
C          2.40197        2.32508        1.16461
H          6.36315        1.21306        0.99780
H          5.38798        0.79402        2.40276
H          5.21175        2.38899        1.63732
H          4.53512       -0.30046        0.25857
H          4.38787        1.28090       -0.48927
H          2.23255        0.45868        0.09606
H          3.24831        0.37262        2.98554
H          2.93969       -1.05572        1.96722
H          0.94336        0.96888        2.96999
H         -0.59625       -2.46597        0.93637
H          2.18640       -1.08412        4.37252
H          0.41572       -1.26295        4.35123
H          0.73634        2.75400        6.71037
H          0.85962        2.70399        9.20340
H          1.32666        0.55727       10.37521
H          1.66881       -1.53528        9.07805
H          1.55035       -1.50320        6.61366
H          2.91878        2.76991        2.02651
H          1.32036        2.42978        1.32925
H          2.64241        2.93448        0.28355
