91

C          1.70348        0.74283        1.17189
C          3.08954        0.30614        1.63759
S          3.73344       -0.91513        0.42125
C          5.21384       -1.34873        1.17642
N          5.73578       -0.94040        2.32329
N          6.92496       -1.60577        2.46756
C          7.06858       -2.37321        1.41694
O          6.01258       -2.26331        0.53832
C          8.15333       -3.27702        1.09524
C          8.19181       -4.00508       -0.11889
C          9.26004       -4.86067       -0.35687
C          9.44762       -5.71378       -1.57536
C          8.35774       -5.67678       -2.64446
C          8.53307       -6.90873       -3.55527
O          8.94685       -7.96746       -3.08810
N          8.17183       -6.70962       -4.85685
C          8.16270       -7.62380       -5.94062
C          8.54661       -8.96863       -5.81978
C          8.50778       -9.78751       -6.95023
C          8.09572       -9.29191       -8.18891
C          7.71296       -7.95223       -8.30091
C          7.74587       -7.12113       -7.18424
C         10.23710       -4.92831        0.65455
N         10.11990       -4.19241        1.77095
N          9.11411       -3.36603        2.03036
C         11.10255       -4.25023        2.88278
C         12.43752       -4.90639        2.54086
O         13.21085       -4.73680        3.70350
C         14.51710       -5.31372        3.60523
C         15.20872       -5.07060        4.93890
O         16.51273       -5.61771        4.80308
C         17.36326       -5.53756        5.88154
C         17.01873       -4.99578        7.12659
C         17.97118       -4.96424        8.14432
C         19.27916       -5.44509        7.96487
C         19.58540       -6.00088        6.71052
C         18.65072       -6.04924        5.68067
C         20.30316       -5.34396        9.10098
C         20.52261       -3.85956        9.55056
C         21.00698       -2.70848        8.61685
C         22.39252       -2.96640        7.99279
C         20.00832       -2.37814        7.48955
C         21.11843       -1.46652        9.52939
C         19.73196       -6.08694       10.33799
C         21.63377       -6.04062        8.75557
H          1.31535        1.49454        1.87181
H          0.99569       -0.09657        1.15460
H          1.72956        1.19998        0.17334
H          3.06568       -0.18251        2.61874
H          3.79916        1.14174        1.67437
H          7.38810       -3.87999       -0.84243
H          9.55121       -6.76959       -1.26259
H         10.42330       -5.46132       -2.02541
H          8.36777       -4.73483       -3.21328
H          7.35945       -5.77295       -2.18448
H          7.85960       -5.77314       -5.09644
H          8.86659       -9.35717       -4.85736
H          8.80672      -10.83173       -6.85348
H          8.07460       -9.94427       -9.06172
H          7.38901       -7.55039       -9.26115
H          7.44784       -6.07338       -7.27480
H         11.10754       -5.57612        0.57984
H         10.61338       -4.77968        3.71270
H         11.25984       -3.21248        3.20008
H         12.90982       -4.41333        1.66551
H         12.31843       -5.98373        2.30423
H         15.08921       -4.84050        2.78675
H         14.44809       -6.39761        3.40100
H         14.64770       -5.56543        5.75090
H         15.25036       -3.98793        5.15238
H         16.02332       -4.59628        7.31597
H         17.67987       -4.52613        9.09961
H         20.58076       -6.39849        6.51877
H         18.90409       -6.47759        4.71065
H         21.23284       -3.90716       10.39425
H         19.57291       -3.51595        9.99478
H         22.35451       -3.72732        7.20246
H         23.12640       -3.28995        8.74522
H         22.77420       -2.04306        7.53241
H         19.92824       -3.18575        6.75124
H         20.33511       -1.47201        6.95737
H         19.00071       -2.18625        7.88635
H         21.84959       -1.62527       10.33577
H         20.15149       -1.22574        9.99599
H         21.44055       -0.58767        8.95211
H         18.79916       -5.63374       10.69935
H         20.45620       -6.06238       11.16495
H         19.52534       -7.13851       10.09465
H         22.11010       -5.65406        7.84834
H         21.48669       -7.12252        8.62541
H         22.34616       -5.90253        9.58037
