80

C          0.18393        0.26001       -0.42977
C          1.70307        0.16862       -0.27387
C          2.41408        1.50877       -0.48637
C          3.93990        1.41742       -0.39298
C          4.64732        2.76264       -0.58353
C          6.17580        2.66135       -0.57269
C          6.87882        4.01119       -0.74656
C          8.40648        3.90846       -0.79832
C          9.10367        5.26492       -0.94268
C         10.62954        5.16592       -1.03748
C         11.32471        6.52871       -1.11617
C         12.84740        6.43317       -1.26535
C         13.54499        7.79890       -1.22057
C         15.07416        7.73905       -1.36127
C         15.52305        7.41895       -2.79378
N         16.98088        7.31998       -2.94524
C         17.72174        6.21302       -2.85951
N         19.04203        6.25309       -3.07053
C         19.73758        7.41627       -3.58592
O         19.52265        8.50180       -2.70302
C         20.33037        9.65878       -3.03779
C         20.06417       10.74088       -2.01352
N         17.12886        5.01450       -2.55926
C         17.78217        3.76190       -2.51805
O         18.98124        3.62252       -2.69216
O         16.87492        2.82707       -2.26528
C         17.35333        1.43184       -2.14219
C         17.53816        1.04973       -0.68502
C         17.89808       -0.43734       -0.54530
C         18.06632       -0.86225        0.91486
H         -0.29872       -0.71334       -0.26574
H         -0.09189        0.60297       -1.43818
H         -0.24843        0.97114        0.28995
H          2.10251       -0.56985       -0.98971
H          1.95050       -0.21800        0.72920
H          2.04338        2.23834        0.25535
H          2.13483        1.91515       -1.47468
H          4.30573        0.70317       -1.15182
H          4.22317        0.99075        0.58529
H          4.32055        3.46161        0.20626
H          4.32193        3.21225       -1.53823
H          6.49853        1.97544       -1.37588
H          6.50616        2.19692        0.37316
H          6.58593        4.68295        0.07920
H          6.51694        4.49362       -1.67148
H          8.69803        3.25532       -1.63984
H          8.77096        3.40697        0.11547
H          8.83288        5.90502       -0.08495
H          8.71730        5.78069       -1.83910
H         10.89943        4.56338       -1.92307
H         11.01526        4.61227       -0.16344
H         11.08750        7.10991       -0.20850
H         10.91236        7.10528       -1.96202
H         13.07333        5.90977       -2.21221
H         13.25237        5.79883       -0.45657
H         13.30819        8.28532       -0.26207
H         13.12896        8.45913       -2.00111
H         15.48362        6.98727       -0.66509
H         15.51704        8.70372       -1.06870
H         15.19204        8.21361       -3.47777
H         15.06423        6.49440       -3.17350
H         17.53377        8.18332       -2.91686
H         19.52485        5.35406       -2.93824
H         19.36505        7.66253       -4.60085
H         20.80598        7.15315       -3.65425
H         20.07939        9.99739       -4.05888
H         21.39201        9.35495       -3.02939
H         19.01410       11.06184       -2.03370
H         20.68870       11.61644       -2.23444
H         20.30847       10.39208       -1.00201
H         16.14251        5.01392       -2.31334
H         18.28032        1.33846       -2.72147
H         16.55647        0.84877       -2.62026
H         16.60786        1.25993       -0.13353
H         18.33231        1.66892       -0.23761
H         18.82691       -0.64355       -1.10155
H         17.11208       -1.04769       -1.01952
H         18.86367       -0.28834        1.40839
H         18.32754       -1.92571        0.98780
H         17.13895       -0.70644        1.48464
