83

C          1.74267       -3.94534       -1.07573
C          3.06149       -3.20687       -0.83368
C          3.66480       -2.61022       -2.10995
C          4.98567       -1.86670       -1.88494
C          5.58558       -1.29263       -3.17228
C          6.89995       -0.53212       -2.96452
C          7.48720        0.01563       -4.26887
C          8.80365        0.78190       -4.09265
C          9.36914        1.27937       -5.42786
C         10.68347        2.03007       -5.29284
O         11.12143        2.39132       -6.61344
C         12.36782        3.07434       -6.62651
C         12.71498        3.34803       -8.07654
C         12.98260        2.19909       -8.87314
C         12.97504        0.86839       -8.36586
C         13.27201       -0.19471       -9.17532
N         13.57284        0.02657      -10.49680
C         13.58516        1.24805      -11.04533
C         13.28846        2.37343      -10.26669
C         13.27838        3.66679      -10.82552
C         13.00602        4.77742      -10.04650
C         12.74869        4.64125       -8.63458
Si        12.50122        6.12798       -7.39367
C         10.78222        5.96443       -6.61775
C         13.95186        6.05501       -6.18256
C         12.58125        7.88170       -8.09206
C         13.08011        6.09787      -10.76458
C         14.55820        6.52806      -10.96755
O         15.45323        5.69716      -11.09922
N         14.74815        7.87137      -11.02137
C         16.06729        8.50037      -11.09634
C         16.49636        9.09981       -9.74955
C         16.71524        8.05502       -8.64865
C         16.94882        8.67005       -7.26802
H          1.33925       -4.36573       -0.14411
H          1.87345       -4.77641       -1.78514
H          0.97877       -3.27305       -1.49421
H          3.79129       -3.89578       -0.37533
H          2.90312       -2.40202       -0.09601
H          2.93361       -1.92207       -2.57039
H          3.82208       -3.41724       -2.84780
H          5.71493       -2.55020       -1.41510
H          4.82681       -1.05017       -1.15861
H          4.84956       -0.62126       -3.64879
H          5.75185       -2.11389       -3.89189
H          7.63667       -1.19842       -2.48194
H          6.73514        0.29932       -2.25709
H          6.74670        0.67665       -4.75249
H          7.64814       -0.82032       -4.97237
H          9.54284        0.13047       -3.59478
H          8.64348        1.63628       -3.41285
H          8.63779        1.93790       -5.92339
H          9.52539        0.42390       -6.10602
H         11.45546        1.40113       -4.80549
H         10.56525        2.94230       -4.67687
H         13.16109        2.45995       -6.15055
H         12.30590        3.99822       -6.03529
H         12.71332        0.67206       -7.32977
H         13.28587       -1.23037       -8.84587
H         13.79586       -0.77482      -11.08503
H         13.83635        1.31424      -12.10339
H         13.49623        3.78914      -11.88698
H         10.38635        4.94242       -6.60147
H         10.07341        6.58127       -7.18770
H         10.79634        6.34915       -5.58796
H         14.05167        5.12147       -5.61752
H         13.85251        6.87747       -5.45922
H         14.89042        6.21375       -6.73262
H         11.77736        8.12319       -8.79975
H         13.55325        8.13433       -8.53218
H         12.44277        8.54324       -7.22246
H         12.50599        6.87944      -10.26238
H         12.65252        5.98370      -11.77261
H         13.94698        8.47352      -10.86188
H         16.04045        9.27575      -11.87589
H         16.76660        7.71895      -11.42252
H         15.73790        9.83474       -9.42436
H         17.42164        9.67638       -9.90896
H         17.56515        7.41162       -8.92706
H         15.84216        7.38336       -8.60462
H         17.82087        9.33914       -7.26525
H         17.12607        7.89552       -6.50931
H         16.08008        9.26180       -6.94172
