69

C          0.14311       -0.61818        0.06395
C          1.66748       -0.48320        0.04399
C          2.39942       -1.80418        0.30839
C          3.92487       -1.67973        0.24378
C          4.66408       -2.99792        0.49901
C          6.18530       -2.87085        0.36460
C          6.93565       -4.18855        0.58883
C          8.44901       -4.04244        0.40517
C          9.21183       -5.37755        0.57581
C         10.68764       -5.19230        0.37488
C         11.29172       -5.37644       -0.85370
C         12.67661       -5.12512       -1.02042
C         13.27437       -5.32304       -2.27396
N         14.58162       -5.10118       -2.44694
C         15.40362       -4.67795       -1.43623
C         14.88418       -4.46293       -0.18772
C         13.50179       -4.67383        0.07791
C         12.85946       -4.49510        1.33889
C         11.50198       -4.74864        1.45310
C         13.57861       -4.02116        2.59915
C         14.06632       -5.14863        3.61802
C         15.04275       -6.30858        3.14095
C         16.60033       -5.99907        3.03446
C         17.49653       -6.24379        4.32724
C         18.15172       -7.67246        4.56524
C         19.26188       -8.28367        3.60124
C         20.46132       -7.37446        3.15251
F         21.03852       -6.78026        4.20773
F         21.36977       -8.13858        2.52732
F         20.03780       -6.42581        2.28729
F         19.78434       -9.33056        4.28611
F         18.66924       -8.76693        2.48018
F         18.71299       -7.58057        5.79572
F         17.15540       -8.59498        4.60946
F         18.49853       -5.33255        4.29430
F         16.73767       -5.99147        5.42339
F         17.08759       -6.74668        2.01328
F         16.74286       -4.69140        2.67960
F         14.85734       -7.36063        3.96289
F         14.62638       -6.68775        1.89112
F         14.60380       -4.52013        4.68608
F         12.92613       -5.78492        4.01433
F         14.62511       -3.19687        2.29948
F         12.70513       -3.27566        3.34385
H         -0.34826        0.34538       -0.12849
H         -0.21463       -0.98366        1.03826
H         -0.20557       -1.32716       -0.70178
H          1.98269        0.26237        0.79344
H          1.98825       -0.08233       -0.93275
H          2.06446       -2.55846       -0.42560
H          2.10252       -2.19480        1.29778
H          4.26257       -0.92417        0.97470
H          4.21389       -1.28913       -0.74810
H          4.29931       -3.76344       -0.20810
H          4.41313       -3.37249        1.50644
H          6.55460       -2.11373        1.07817
H          6.42768       -2.48273       -0.64037
H          6.55488       -4.95198       -0.11151
H          6.72248       -4.57080        1.60166
H          8.84306       -3.30342        1.12357
H          8.66603       -3.63700       -0.59782
H          8.82808       -6.11395       -0.14600
H          9.02326       -5.78329        1.58177
H         10.70673       -5.71777       -1.71014
H         12.71098       -5.66218       -3.14247
H         14.98619       -5.25316       -3.37074
H         16.45094       -4.53495       -1.69010
H         15.56199       -4.12760        0.58997
H         11.02543       -4.59694        2.42204
