53

C          0.96465        0.25815       -1.14135
C          2.48346        0.30466       -0.95677
C          2.95618        1.51450       -0.14270
C          4.47499        1.57227        0.04887
C          4.94256        2.78435        0.86183
C          6.46055        2.83378        1.06047
C          6.93354        4.05606        1.85635
C          8.45364        4.06801        2.06555
C          8.92604        5.29483        2.82142
O         10.36481        5.17785        3.01234
C         10.93067        6.27928        3.61681
N         12.42748        6.05504        3.65676
N         12.90021        4.96710        4.56009
C         14.20348        5.37922        5.09869
C         11.95423        4.64485        5.63469
C         12.99150        5.79379        2.26344
C         12.91326        7.01401        1.35054
C         13.62015        8.26368        1.88737
H          0.65657       -0.61959       -1.72574
H          0.59835        1.15220       -1.66777
H          0.44552        0.21020       -0.17245
H          2.97564        0.31691       -1.94408
H          2.82402       -0.62075       -0.46177
H          2.46372        1.50247        0.84579
H          2.61498        2.44132       -0.63728
H          4.96791        1.58384       -0.93920
H          4.81603        0.64647        0.54508
H          4.44521        2.77698        1.84748
H          4.60842        3.71019        0.36133
H          6.95948        2.82696        0.07582
H          6.79209        1.91472        1.57451
H          6.42557        4.07486        2.83584
H          6.62219        4.97588        1.33178
H          8.96798        4.03010        1.09192
H          8.76167        3.16896        2.62309
H          8.44090        5.37328        3.81119
H          8.71675        6.22328        2.25928
H         10.59462        6.45110        4.65480
H         10.79093        7.21580        3.04324
H         12.81940        6.95467        3.99437
H         14.92348        5.56275        4.29155
H         14.58893        4.54609        5.69684
H         14.13926        6.27610        5.74794
H         11.01107        4.28088        5.21428
H         11.77648        5.47033        6.35008
H         12.41055        3.81417        6.18618
H         12.42754        4.93637        1.88476
H         14.03060        5.48718        2.42658
H         11.86717        7.23644        1.09055
H         13.38395        6.70113        0.40648
H         13.11886        8.69959        2.76771
H         13.63379        9.05468        1.12813
H         14.66471        8.05443        2.16033
