59

C          9.00658        1.41892        2.28641
C          7.70108        1.75354        1.56064
C          7.83691        1.67198        0.03294
C          6.52780        1.99673       -0.66368
O          6.74661        2.04743       -2.11890
C          5.96146        1.29427       -2.88109
O          5.06228        0.55855       -2.54927
N          6.37228        1.43275       -4.26314
C          5.44754        1.62282       -5.23835
N          5.73459        1.46324       -6.55975
C          4.65332        2.03423       -7.37902
C          3.47975        1.98320       -6.39602
N          4.16092        1.97883       -5.08244
C          3.42985        2.45629       -3.89286
O          4.12688        3.43965       -3.16952
C          4.49019        4.62594       -3.92180
O          3.49509        5.06613       -4.78918
C          2.34527        5.66692       -4.15849
C          1.20441        5.65348       -5.14999
O          0.84487        4.28726       -5.41268
C          7.82927        1.44155       -4.57153
C          8.32124        2.90917       -4.57748
O          7.63393        3.80852       -5.02554
O          9.55752        3.02496       -4.09372
C         10.15642        4.37098       -4.11637
C         10.84925        4.64116       -5.43794
C          8.63099        0.43855       -3.74090
H          8.88229        1.49051        3.37461
H          9.81400        2.10767        1.99821
H          9.34147        0.39693        2.05761
H          7.36934        2.76633        1.84291
H          6.90599        1.06680        1.89451
H          8.16257        0.65877       -0.25467
H          8.61699        2.37124       -0.31001
H          6.15605        2.99700       -0.40138
H          5.74360        1.25726       -0.46031
H          6.68993        1.55185       -6.88301
H          4.48315        1.42595       -8.27395
H          4.89928        3.06576       -7.67709
H          2.88933        1.06045       -6.50717
H          2.81376        2.85208       -6.45783
H          3.25667        1.63396       -3.18982
H          2.47603        2.82797       -4.29304
H          5.37261        4.41913       -4.54455
H          4.73822        5.35782       -3.13591
H          2.58085        6.70677       -3.87314
H          2.06634        5.10426       -3.25277
H          1.51418        6.16117       -6.08062
H          0.35952        6.21197       -4.71341
H         -0.01700        4.27718       -5.85499
H          7.92896        1.10127       -5.61316
H         10.86290        4.34585       -3.27857
H          9.36119        5.09853       -3.91024
H         11.61062        3.87948       -5.65083
H         11.35284        5.61620       -5.38603
H         10.13204        4.67809       -6.26778
H          8.74325        0.74899       -2.69909
H          9.63379        0.34567       -4.17251
H          8.15174       -0.54818       -3.77894
