55

Br         0.94408        2.50273        0.44773
C          2.70299        2.38223       -0.40542
C          3.65895        1.56326        0.44875
C          5.07778        1.44239       -0.13732
N          5.77351        2.72303       -0.30240
C          6.22007        3.26368       -1.63231
C          5.19956        3.12717       -2.76079
C          5.69469        3.72038       -4.09842
C          7.09117        3.25899       -4.54496
C          7.25312        1.74032       -4.71294
C          8.70687        1.27594       -4.56723
N          9.21613        1.55603       -3.20271
C          6.53666        4.72878       -1.27030
N          6.80905        4.62675        0.16125
C          6.23445        3.51581        0.68074
N          6.15944        3.33606        2.00486
C          6.21764        2.11786        2.79551
C          6.67923        2.57343        4.20649
O          6.91624        3.77034        4.36007
C          6.81623        1.58066        5.28453
C          6.54782        0.21142        5.09050
C          6.70189       -0.68705        6.14353
C          7.12336       -0.22875        7.39634
C          7.39000        1.13087        7.59877
C          7.23751        2.03265        6.55178
H          3.03522        3.41838       -0.52833
H          2.52843        1.93499       -1.39023
H          3.26685        0.54246        0.56979
H          3.69702        2.00320        1.45577
H          5.03974        0.98240       -1.13210
H          5.67917        0.76321        0.48355
H          7.14991        2.72985       -1.90332
H          4.26255        3.62811       -2.47515
H          4.95784        2.06448       -2.90823
H          5.68501        4.82052       -4.03608
H          4.95014        3.46253       -4.86691
H          7.83736        3.61948       -3.81748
H          7.34008        3.76246       -5.49130
H          6.85711        1.42556       -5.69106
H          6.66570        1.20077       -3.95260
H          9.33329        1.74932       -5.34290
H          8.75604        0.19296       -4.74778
H          9.84885        2.35529       -3.21147
H          9.77399        0.77175       -2.86834
H          5.67586        5.39158       -1.46697
H          7.41049        5.10867       -1.81141
H          7.06886        5.41718        0.73994
H          6.48090        4.11187        2.61333
H          6.94460        1.39531        2.39437
H          5.24000        1.61882        2.87969
H          6.21749       -0.16343        4.12074
H          6.49387       -1.74596        5.99104
H          7.24384       -0.93442        8.21902
H          7.71612        1.48364        8.57722
H          7.43902        3.09456        6.69029
