99

C          5.96778        3.73334       -2.00631
C          4.98712        2.58855       -2.26732
C          5.65639        1.20861       -2.25560
C          4.67025        0.06808       -2.53923
C          5.34890       -1.29995       -2.61281
O          4.51437       -2.34338       -3.12217
C          3.45008       -2.63559       -2.26201
N          3.96891       -2.94511       -0.91583
C          5.20508       -2.58441       -0.51884
N          5.73060       -3.03436        0.63858
C          7.00982       -2.49524        1.16144
C          8.27637       -3.27933        0.79145
C          8.73503       -3.15707       -0.66633
C         10.08768       -3.82406       -0.94400
C         10.58905       -3.59100       -2.37298
C         11.94644       -4.23952       -2.66326
C         12.46957       -3.95567       -4.07602
C         13.82531       -4.60594       -4.36059
C          4.97088       -3.95848        1.49665
C          5.06415       -5.45003        1.12883
O          6.35526       -6.00798        1.30355
C          6.74444       -6.25075        2.66203
C          6.09275       -7.49216        3.27804
O          6.50348       -7.47033        4.63674
C          5.87265       -8.30763        5.53644
C          4.99201       -9.33597        5.18637
C          4.40421      -10.10587        6.19379
C          4.66966       -9.89077        7.55455
C          5.56077       -8.85114        7.86884
C          6.16015       -8.07136        6.88358
C          4.02498      -10.77492        8.63072
C          4.55900      -12.24737        8.57802
C          6.06899      -12.64148        8.58526
C          6.88041      -11.99793        9.72577
C          6.09507      -14.17247        8.78796
C          6.76372      -12.32976        7.24325
C          4.17931      -10.17511       10.04428
C          2.49915      -10.85399        8.36869
N          5.89393       -1.73556       -1.31177
H          5.45799        4.70489       -2.03296
H          6.76611        3.75847       -2.76238
H          6.44579        3.63727       -1.02029
H          4.49277        2.73996       -3.24115
H          4.18314        2.60832       -1.51268
H          6.14246        1.04821       -1.27788
H          6.46303        1.19017       -3.00950
H          4.17586        0.23194       -3.50974
H          3.88325        0.06296       -1.76766
H          6.19820       -1.26208       -3.30956
H          2.95242       -3.52865       -2.66141
H          2.72461       -1.80652       -2.19591
H          3.40880       -3.53414       -0.31356
H          6.89730       -2.48024        2.25387
H          7.08903       -1.44114        0.85134
H          8.12924       -4.33811        1.04596
H          9.07441       -2.90119        1.45131
H          8.82761       -2.08371       -0.93411
H          7.98414       -3.60317       -1.34230
H         10.00345       -4.90606       -0.74761
H         10.83348       -3.43993       -0.22741
H         10.66151       -2.50395       -2.55702
H          9.84175       -3.97170       -3.09195
H         11.87091       -5.33053       -2.51293
H         12.68534       -3.88331       -1.92427
H         12.54621       -2.86450       -4.22057
H         11.72916       -4.30689       -4.81477
H         14.59549       -4.24629       -3.66230
H         14.17190       -4.38300       -5.37858
H         13.77332       -5.69992       -4.25965
H          3.91066       -3.65402        1.53869
H          5.34246       -3.80657        2.51798
H          4.82316       -5.60503        0.06625
H          4.29902       -5.98274        1.72298
H          6.53036       -5.38458        3.31363
H          7.83489       -6.37769        2.63673
H          6.43071       -8.40677        2.76018
H          4.99031       -7.44489        3.20696
H          4.76441       -9.55876        4.14395
H          3.73396      -10.91076        5.89056
H          5.80283       -8.63553        8.90849
H          6.84917       -7.26738        7.14429
H          4.12662      -12.71886        7.67882
H          4.08348      -12.76151        9.43129
H          6.40754      -12.15792       10.70557
H          7.01583      -10.91821        9.57828
H          7.88458      -12.44532        9.76733
H          5.65718      -14.45438        9.75683
H          7.12754      -14.55046        8.76256
H          5.52928      -14.69148        7.99988
H          6.88286      -11.25317        7.07268
H          6.19714      -12.74399        6.39618
H          7.76643      -12.78243        7.22705
H          5.21896      -10.06182       10.36750
H          3.68502      -10.83143       10.77371
H          3.69530       -9.18935       10.10490
H          2.26406      -11.32357        7.40440
H          2.05250       -9.84943        8.37606
H          2.00982      -11.45058        9.15209
H          6.90493       -1.73938       -1.21453
