66

C          3.35139        4.36582        3.11573
C          3.60349        3.37524        1.97762
C          4.63574        3.87928        0.96430
C          4.90578        2.89084       -0.17489
C          5.94012        3.41436       -1.18023
C          6.19424        2.41550       -2.29518
O          7.09399        3.01628       -3.29782
C          8.27055        2.43147       -3.52570
O          8.71505        1.43741       -2.98185
C          9.00082        3.17959       -4.65317
C         10.47146        2.95772       -4.68281
N         11.39408        3.90116       -4.42155
C         12.66941        3.40173       -4.58402
C         12.53410        2.09296       -4.96641
N         11.15640        1.83617       -4.99929
C         10.53734        0.57417       -5.40098
C         10.06156        0.64298       -6.87259
O          9.70764        1.71612       -7.35825
N         10.01334       -0.54563       -7.51340
C          9.47667       -0.68629       -8.87488
C         10.51384       -0.43973       -9.97649
C         11.68011       -1.43270       -9.98952
C         12.66690       -1.16818      -11.12916
C         13.57187        1.06186       -5.29096
C         14.89113        1.64810       -5.79307
O         15.44573        2.45345       -4.76025
C         16.65787        3.08913       -5.12453
C         16.90614        4.21967       -4.13150
F         17.00226        3.77604       -2.86052
F         18.04929        4.86532       -4.44670
F         15.88857        5.13175       -4.16606
H          2.61097        3.97824        3.82811
H          2.97327        5.32520        2.73258
H          4.27516        4.57361        3.67555
H          2.65596        3.16225        1.45505
H          3.94460        2.41263        2.39399
H          5.58232        4.09964        1.48786
H          4.29157        4.83870        0.54029
H          3.96062        2.67173       -0.70056
H          5.25208        1.93227        0.24796
H          6.88856        3.62984       -0.66185
H          5.58755        4.36231       -1.61683
H          5.27442        2.18313       -2.84949
H          6.65102        1.48666       -1.93224
H          8.79131        4.25464       -4.58016
H          8.57942        2.84430       -5.61592
H         11.16805        4.85276       -4.14771
H         13.56055        3.98957       -4.40354
H          9.67594        0.40255       -4.73997
H         11.25336       -0.23498       -5.21784
H         10.36288       -1.37410       -7.04380
H          8.64929        0.02929       -8.96944
H          9.06129       -1.70145       -8.95246
H         10.89111        0.59148       -9.88530
H          9.98057       -0.48753      -10.93993
H         11.28533       -2.45936      -10.07407
H         12.21756       -1.38831       -9.02609
H         12.17037       -1.24362      -12.10713
H         13.49483       -1.88942      -11.12004
H         13.09888       -0.15907      -11.05627
H         13.19838        0.38944       -6.07742
H         13.77210        0.43901       -4.40282
H         14.72334        2.25412       -6.70416
H         15.57421        0.81957       -6.05388
H         16.60028        3.53923       -6.13110
H         17.51664        2.39651       -5.08862
