69

O          0.84982       -1.94447       -0.00861
C          1.90670       -1.08167        0.38712
C          1.73966        0.44081        0.08112
N          1.98627        0.66977       -1.43401
N          1.97418       -0.48100       -2.11027
C          2.12545       -0.49682       -3.43110
C          2.05911       -1.82308       -4.12464
C          1.89218       -3.04552       -3.22674
C          2.06736       -4.31773       -4.07071
O          2.75352       -4.31411       -5.09019
N          1.42098       -5.41423       -3.56371
C          1.39957       -6.74985       -4.03350
C          2.04937       -7.16766       -5.20643
C          1.96270       -8.50826       -5.58852
C          1.24561       -9.43434       -4.82773
C          0.60049       -9.01171       -3.66165
C          0.67552       -7.67851       -3.26607
C          2.32730        0.70480       -4.14539
C          2.32856        1.87938       -3.43374
C          2.13457        1.87731       -2.03676
C          2.09869        3.20329       -1.33293
C          3.46325        3.76307       -0.93151
C          4.66545        3.31186       -1.48390
C          5.87434        3.88061       -1.06856
C          5.88787        4.88845       -0.10753
C          4.69013        5.35685        0.46083
C          3.48828        4.77947        0.03476
C          4.70142        6.45350        1.49303
C          0.32071        0.93132        0.47463
C         -0.87761        0.59773       -0.45695
C         -2.10502        0.23096        0.39015
C         -1.22838        1.74717       -1.41468
C          2.84082        1.13448        0.89914
H          0.28538       -2.11215        0.76040
H          2.83209       -1.44153       -0.08279
H          2.05167       -1.13563        1.47667
H          2.96330       -1.95735       -4.74309
H          1.23594       -1.77241       -4.85903
H          0.93022       -3.02904       -2.69501
H          2.66928       -3.05111       -2.44494
H          0.88970       -5.26013       -2.71155
H          2.60841       -6.45047       -5.80056
H          2.46592       -8.82943       -6.50127
H          1.18937      -10.47702       -5.14055
H          0.03639       -9.72145       -3.05579
H          0.17024       -7.35139       -2.35343
H          2.46703        0.69014       -5.22706
H          2.46564        2.84297       -3.92395
H          1.44153        3.17058       -0.45854
H          1.61909        3.90326       -2.03711
H          4.68239        2.51492       -2.22925
H          6.81220        3.52590       -1.49742
H          6.83845        5.31805        0.21344
H          2.54842        5.12766        0.47221
H          5.44640        6.25474        2.27591
H          3.72205        6.56904        1.97398
H          4.96549        7.41860        1.03497
H          0.33956        2.01349        0.67414
H          0.14484        0.47439        1.46154
H         -0.61487       -0.28707       -1.05569
H         -2.40312        1.06409        1.04512
H         -1.90762       -0.64109        1.03033
H         -2.96611       -0.01311       -0.24657
H         -1.45834        2.67091       -0.86157
H         -2.11612        1.49291       -2.00915
H         -0.42782        1.97595       -2.13059
H          3.84056        0.79994        0.59103
H          2.70381        0.86349        1.95334
H          2.82070        2.22458        0.84486
