66

C          3.31061       -0.38363        0.21060
C          3.83822        0.63827       -0.77290
O          3.94992        1.91502       -0.06442
C          4.52763        2.92508       -0.75652
O          4.93035        2.83674       -1.89470
C          4.53217        4.23098        0.04784
C          4.24757        4.05571        1.55325
O          3.95247        5.36215        2.13199
C          5.03632        5.76614        2.89728
N          5.42853        4.50323        3.61200
C          5.23886        3.36155        2.58476
C          4.53032        2.19087        3.28649
C          3.16459        2.52692        3.92940
C          3.12234        2.14084        5.41423
S          1.76203        2.91652        6.32068
C          2.42049        4.52122        6.71434
S          4.01574        4.99130        6.37771
N          1.56140        5.31944        7.37277
C          0.17968        4.95126        7.72515
C         -0.78293        6.04134        7.24028
O         -0.43402        7.31594        7.75992
C          0.88439        7.67890        7.36274
C          1.92054        6.66522        7.84936
C          6.69548        2.97968        2.16335
C          6.94725        1.75391        1.30509
C          7.38416        1.89473       -0.01870
C          7.67647        0.77749       -0.80428
C          7.55152       -0.50536       -0.26926
C          7.14953       -0.66132        1.06078
C          6.85968        0.45717        1.84206
C          5.66215        5.17674       -0.37738
H          3.18380       -1.34841       -0.29861
H          2.33325       -0.08634        0.61464
H          4.01365       -0.53564        1.04034
H          3.16419        0.78246       -1.62910
H          4.83138        0.37501       -1.15793
H          3.59866        4.71600       -0.29754
H          3.30004        3.51026        1.61672
H          4.71573        6.52529        3.62167
H          5.90599        6.11365        2.31187
H          4.80642        4.41294        4.47989
H          6.40143        4.52513        3.94250
H          5.21001        1.78427        4.05231
H          4.41761        1.40379        2.53163
H          2.35465        2.01183        3.39587
H          2.93593        3.59927        3.84216
H          4.05009        2.41642        5.93641
H          2.95505        1.06267        5.55320
H          0.11677        4.84440        8.82026
H         -0.08943        3.99179        7.26917
H         -1.79829        5.82185        7.59483
H         -0.78994        6.06252        6.13269
H          1.08783        8.66107        7.80880
H          0.93990        7.77197        6.26020
H          1.94175        6.64293        8.95104
H          2.92214        6.91043        7.48089
H          7.23567        2.81847        3.11390
H          7.16887        3.84890        1.68548
H          7.50676        2.88750       -0.45155
H          8.00523        0.91608       -1.83418
H          7.78583       -1.37964       -0.87702
H          7.08114       -1.65772        1.49868
H          6.58928        0.31124        2.88873
H          6.65234        4.86339       -0.02640
H          5.46879        6.19588       -0.02119
H          5.70329        5.20740       -1.47225
