102

C          4.14325      -10.25793       14.71289
C          5.54844      -10.55649       14.18345
C          5.87682       -9.81291       12.88382
C          7.28202      -10.10055       12.34522
C          7.60042       -9.36386       11.03990
C          9.00761       -9.64286       10.50174
C          9.32827       -8.88784        9.20764
C         10.73620       -9.15950        8.66777
C         11.06477       -8.37548        7.39279
C         12.48664       -8.62843        6.87683
C         12.84309       -7.90251        5.56789
C         12.71981       -6.36716        5.59499
C         13.52766       -5.60538        6.66222
C         15.05189       -5.60222        6.42905
N         15.67080       -4.48257        7.19636
C         16.27162       -4.84314        8.30239
S         16.39738       -6.49641        8.62605
C         15.76950       -6.89453        6.88111
C         16.90308       -7.40331        6.04591
C         17.67067       -6.58699        5.20472
C         18.71424       -7.11272        4.44423
C         19.00252       -8.47681        4.52520
C         18.26416       -9.31524        5.36237
C         17.22211       -8.78295        6.13148
O         16.46111       -9.50063        7.00575
C         16.69532      -10.91175        7.12415
C         15.56473       -3.08009        6.76088
C         16.66284       -2.68501        5.76506
C         16.71914       -1.16662        5.54138
S         17.12899       -0.24061        7.04398
C         15.50622        0.34046        7.61328
S         14.12440        0.19788        6.68966
N         15.54487        0.92937        8.83117
C         16.75123        1.00521        9.67199
C         16.73455        0.05992       10.88544
C         16.55580       -1.42500       10.54375
C         16.51579       -2.31782       11.78645
C         14.33092        1.57247        9.37228
C         13.34224        0.62897       10.07098
C         12.05247        1.36458       10.45120
C         11.04625        0.47329       11.18193
H          3.93352      -10.81319       15.63732
H          3.37266      -10.53425       13.97791
H          4.01830       -9.18727       14.93347
H          5.65649      -11.64158       14.01614
H          6.29623      -10.29450       14.95131
H          5.76391       -8.72631       13.04793
H          5.12985      -10.07906       12.11493
H          7.39670      -11.18752       12.18769
H          8.02979       -9.82710       13.11071
H          7.47942       -8.27725       11.19654
H          6.85550       -9.64137       10.27357
H          9.12507      -10.72739       10.33117
H          9.75224       -9.37722       11.27310
H          9.20844       -7.80352        9.38121
H          8.58450       -9.15211        8.43592
H         10.85303      -10.23996        8.47334
H         11.47882       -8.91230        9.44791
H         10.91779       -7.29992        7.59298
H         10.33951       -8.63427        6.60186
H         12.62496       -9.70978        6.71523
H         13.20148       -8.36580        7.67867
H         12.17547       -8.26700        4.77104
H         13.85566       -8.20015        5.24691
H         11.66421       -6.09581        5.74277
H         12.98782       -5.97031        4.60188
H         13.31847       -5.98858        7.67394
H         13.18337       -4.56044        6.65753
H         15.25948       -5.42710        5.36232
H         16.67820       -4.08914        8.97911
H         15.04343       -7.69406        7.05108
H         17.45093       -5.52141        5.13289
H         19.29511       -6.46438        3.78941
H         19.81256       -8.89996        3.93077
H         18.50662      -10.37494        5.41448
H         15.96329      -11.26822        7.85552
H         17.71193      -11.11494        7.49254
H         16.53423      -11.42217        6.16299
H         15.63873       -2.45395        7.65960
H         14.56410       -2.92466        6.33866
H         16.49639       -3.17352        4.79127
H         17.63351       -3.03926        6.14696
H         15.75881       -0.76154        5.17913
H         17.50650       -0.91961        4.81769
H         16.84536        2.04660       10.01481
H         17.63229        0.80363        9.04975
H         15.94670        0.37244       11.58931
H         17.68744        0.20661       11.41973
H         17.37669       -1.73767        9.87623
H         15.62167       -1.55074        9.96990
H         17.44939       -2.24753       12.36252
H         16.36854       -3.37715       11.52730
H         15.69175       -2.03282       12.45615
H         13.82649        2.06914        8.53127
H         14.67493        2.34890       10.07174
H         13.80222        0.19481       10.97283
H         13.10517       -0.20453        9.39217
H         11.59155        1.77255        9.53654
H         12.29829        2.23532       11.08283
H         10.75092       -0.38683       10.56264
H         10.13304        1.02833       11.43470
H         11.46492        0.08011       12.12053
