65

C         16.84239       -3.68575        3.42301
C         15.98122       -3.51334        2.41400
C         15.41618       -2.17680        2.10805
O         15.60121       -1.15280        2.74811
O         14.64803       -2.23817        0.98470
C         14.07722       -0.98675        0.52806
C         12.80973       -0.61722        1.29213
C         12.16699        0.66855        0.74470
C         11.22478        1.34507        1.75367
C         12.00184        2.04569        2.87585
C         11.10424        2.47598        4.04572
C         11.84462        3.31480        5.09263
N         10.86198        4.06109        6.02494
C          9.95818        5.05598        5.32415
C          9.52930        6.18434        6.26073
C          8.67565        7.20267        5.49393
S          8.16626        8.50328        6.65172
C          7.16069        9.52074        5.59771
S          6.74890        9.15009        4.05413
N          6.73913       10.67273        6.26432
C          5.73737       11.55109        5.83625
C          5.67080       12.52325        6.79158
N          6.60348       12.29996        7.80134
C          7.22143       11.20108        7.47327
C         10.11750        3.08081        6.90808
C         11.11516        2.20173        7.66101
O         12.03489        1.56466        6.78388
C         12.77044        2.53471        6.05090
C         13.99887        1.94260        5.30712
O         14.69773        2.74472        4.71759
C         14.26381        0.47215        5.40554
H         17.27165       -4.66217        3.64475
H         17.14383       -2.84090        4.04493
H         15.67381       -4.33502        1.76585
H         13.87137       -1.15546       -0.53722
H         14.83304       -0.19431        0.63138
H         13.07992       -0.49301        2.35146
H         12.09139       -1.44976        1.23996
H         11.61654        0.44126       -0.18011
H         12.95429        1.38753        0.45890
H         10.54454        0.58888        2.18273
H         10.58442        2.07829        1.23747
H         12.53296        2.92100        2.46803
H         12.78468        1.36570        3.23701
H         10.66988        1.58142        4.51653
H         10.26524        3.06163        3.63728
H         12.43773        4.10717        4.61118
H         11.46759        4.61759        6.64908
H          9.09766        4.50069        4.93108
H         10.53203        5.44990        4.47377
H         10.42355        6.68192        6.67413
H          8.95201        5.78924        7.11110
H          7.76991        6.74430        5.07216
H          9.23402        7.66263        4.66606
H          5.19487       11.37159        4.91724
H          5.00648       13.38103        6.82315
H          8.04251       10.74287        8.01733
H          9.46849        2.49080        6.25070
H          9.49544        3.65282        7.60766
H         10.57076        1.41180        8.19403
H         11.66442        2.80524        8.41189
H         13.22159        3.26351        6.76143
H         14.66748        0.25264        6.40824
H         14.99038        0.16388        4.64508
H         13.33596       -0.10985        5.32022
