86

N          3.88545       -0.09295       -0.00128
C          4.95545       -0.38503        0.98080
C          6.26801       -0.76021        0.28823
C          6.77379        0.23245       -0.77458
N          6.97409        1.59257       -0.27961
C          6.10266        2.60575       -0.41462
N          4.87831        2.37817       -0.90525
N          6.50854        3.85714       -0.06025
C          5.52203        4.91443        0.26296
C          4.58852        4.58268        1.43414
C          5.26128        4.43713        2.81412
C          5.65386        5.81625        3.37885
C          6.38849        5.78851        4.72975
C          6.85786        7.15329        5.14340
C          6.61290        7.80416        6.29576
C          5.81514        7.24789        7.44520
C          7.15432        9.19071        6.52295
C          4.32676        3.66375        3.75585
C          7.93060        4.14249       -0.00248
O          8.53114        3.40511        1.06133
C          9.97248        3.59615        1.13811
C         10.36932        4.79344        1.99361
C         10.05610        4.61367        3.48219
C         10.38320        5.84894        4.32634
C         10.11019        5.65857        5.82093
C         10.38021        6.91292        6.65661
C          9.90871        6.77944        8.10669
C         10.19653        8.01036        8.97137
C          9.58990        7.92316       10.37499
C          9.87412        9.14688       11.25233
C          9.25218        9.04806       12.64763
H          3.00182        0.07134        0.48531
H          3.72452       -0.90388       -0.60416
H          4.68226       -1.19538        1.67622
H          5.09497        0.52035        1.59360
H          6.16297       -1.73957       -0.20730
H          7.03775       -0.89577        1.06313
H          6.08791        0.28199       -1.63061
H          7.73865       -0.12135       -1.16343
H          7.78250        1.81071        0.31387
H          4.41570        1.44029       -0.73521
H          4.28617        3.17279       -1.10985
H          4.93985        5.16646       -0.64011
H          6.11213        5.81161        0.48671
H          4.02785        3.66261        1.20671
H          3.83190        5.38394        1.47786
H          6.18467        3.84138        2.68950
H          4.74552        6.43630        3.47769
H          6.29741        6.34255        2.65149
H          7.25394        5.10638        4.64199
H          5.73950        5.35318        5.50185
H          7.46685        7.67694        4.39678
H          5.39909        6.25223        7.25270
H          4.98268        7.92187        7.70160
H          6.44399        7.17936        8.34769
H          7.74979        9.54420        5.67187
H          7.78644        9.22515        7.42447
H          6.33581        9.90881        6.69263
H          3.39448        4.22119        3.93668
H          4.79197        3.47097        4.73059
H          4.05229        2.68839        3.32594
H          8.04502        5.22709        0.14286
H          8.40981        3.85744       -0.95925
H         10.37715        3.67736        0.11378
H         10.35476        2.66413        1.57926
H          9.88595        5.70820        1.60851
H         11.45171        4.95321        1.85307
H         10.62066        3.74524        3.86468
H          8.98997        4.35869        3.60096
H          9.79238        6.70634        3.95862
H         11.44124        6.12660        4.17680
H         10.71953        4.82104        6.20291
H          9.05882        5.35852        5.96397
H          9.86892        7.77239        6.19091
H         11.45820        7.14954        6.63341
H         10.37696        5.89243        8.56847
H          8.82325        6.57880        8.10577
H          9.81170        8.91278        8.46394
H         11.28775        8.15739        9.04984
H          9.96716        7.01679       10.88106
H          8.49664        7.78416       10.28956
H          9.50076       10.05235       10.74416
H         10.96503        9.28168       11.34343
H          8.15774        8.94745       12.59134
H          9.47180        9.93894       13.25156
H          9.63537        8.17370       13.19464
