69

C         -0.39321      -10.32864        4.05457
C          1.12370      -10.52696        4.11486
C          1.88975       -9.67387        3.09749
C          3.40754       -9.87947        3.13954
C          4.17357       -9.01614        2.13203
C          5.68748       -9.25258        2.14309
C          6.45438       -8.35756        1.16472
C          7.95738       -8.65039        1.10420
C          8.71955       -7.71700        0.15872
C         10.21430       -8.03275        0.03954
C         10.95431       -7.06455       -0.89090
C         12.46182       -7.32321       -1.04294
C         12.85823       -8.68736       -1.63041
C         12.22481       -8.97795       -2.99733
C         12.89039      -10.15322       -3.74219
N         14.28802       -9.86410       -4.07639
C         14.46717       -8.93354       -5.16787
C         13.66595       -9.25466       -6.44115
N         12.20730       -9.49368       -6.05386
C         12.08077      -10.56849       -4.98606
C         11.27976       -9.68241       -7.23534
C          9.80774       -9.45983       -6.85046
C          8.98109       -9.24737       -8.07196
C          8.00782      -10.04780       -8.52595
F          7.66095      -11.17690       -7.91920
F          7.28915       -9.81079       -9.60061
F          9.26917       -8.11558       -8.76644
Br        14.37069      -10.79997       -7.39839
H         -0.91147      -10.95092        4.79694
H         -0.79180      -10.59285        3.06356
H         -0.66738       -9.28121        4.25055
H          1.36320      -11.59112        3.94877
H          1.48635      -10.29223        5.12993
H          1.65991       -8.60752        3.27063
H          1.51926       -9.89916        2.08148
H          3.63545      -10.94441        2.95532
H          3.77746       -9.66512        4.15761
H          3.96832       -7.95030        2.33524
H          3.78395       -9.20820        1.11637
H          5.89091      -10.31220        1.90655
H          6.07649       -9.09301        3.16392
H          6.29929       -7.29982        1.44034
H          6.02331       -8.46984        0.15360
H          8.11172       -9.69849        0.79087
H          8.38848       -8.57351        2.11745
H          8.59524       -6.67413        0.49819
H          8.25914       -7.76027       -0.84526
H         10.33198       -9.07343       -0.31257
H         10.68052       -8.00320        1.03956
H         10.82088       -6.03799       -0.51372
H         10.46572       -7.06944       -1.88249
H         12.94796       -7.22084       -0.05980
H         12.89682       -6.52907       -1.67402
H         12.58363       -9.49916       -0.93768
H         13.95227       -8.72739       -1.73568
H         12.27271       -8.05240       -3.60622
H         11.15256       -9.20313       -2.88209
H         12.89149      -11.02459       -3.06946
H         14.84097      -10.71052       -4.20050
H         15.52908       -8.86715       -5.43411
H         14.16466       -7.91943       -4.84583
H         13.66564       -8.42570       -7.15972
H         11.91925       -8.61116       -5.59583
H         12.45135      -11.49642       -5.43900
H         11.01297      -10.67302       -4.76132
H         11.45530      -10.68812       -7.63411
H         11.59191       -8.94863       -7.99082
H          9.71512       -8.56356       -6.20851
H          9.40104      -10.31086       -6.28997
