46

C          0.92382        0.10660       -0.38034
C          2.45514        0.11401       -0.31174
C          2.97196        0.94840        0.87119
C          4.50193        1.16220        0.99536
C          5.01854        2.04605       -0.18179
N          6.37345        1.83081       -0.64346
C          6.60861        0.45205       -1.02047
C          6.45714       -0.53411        0.14706
N          5.14501       -0.26006        0.89722
C          7.64769       -0.53771        1.10813
O          8.68366       -1.19734        0.42143
C          9.91107       -1.20166        1.15630
C          4.77734        1.74894        2.40519
C          6.19942        1.92867        2.88782
C          6.71633        1.05333        3.85512
C          8.02810        1.18525        4.31991
C          8.84236        2.20653        3.82772
C          8.32821        3.11249        2.89301
C          7.01622        2.97999        2.43538
H          0.57201       -0.51145       -1.21535
H          0.53360        1.12302       -0.52765
H          0.48186       -0.29246        0.54324
H          2.86053        0.48778       -1.26460
H          2.78588       -0.94240       -0.23416
H          2.58848        0.51519        1.81079
H          2.52969        1.95622        0.81407
H          4.89219        3.09476        0.11920
H          4.35506        1.89472       -1.04730
H          7.07443        2.18173        0.00844
H          7.62435        0.32928       -1.41941
H          5.91084        0.18842       -1.83233
H          6.35226       -1.56226       -0.23292
H          5.25279       -0.61680        1.85759
H          4.42436       -0.84430        0.45006
H          7.38376       -1.07409        2.04514
H          7.94472        0.48648        1.39877
H         10.64587       -1.72243        0.53415
H          9.79812       -1.73769        2.11427
H         10.25781       -0.17358        1.35717
H          4.24437        1.11658        3.13517
H          4.25352        2.71782        2.42082
H          6.07764        0.26882        4.27057
H          8.40814        0.49809        5.07649
H          9.86398        2.31747        4.19185
H          8.94518        3.93697        2.53468
H          6.61755        3.72426        1.74261
