42

C          5.79867       -3.98403        1.60554
C          5.76202       -2.73252        0.72515
C          5.99358       -1.44280        1.52257
C          5.99046       -0.20090        0.62450
N          6.12754        1.05288        1.38806
C          7.30492        1.58761        1.70864
O          8.42148        1.13770        1.36362
C          7.37323        2.85067        2.55265
S          9.19677        2.93848        2.78540
C          9.79300        3.80457        1.27981
C         11.32822        3.83300        1.26554
O         11.65863        4.52640        0.09407
Si        13.25734        4.75416       -0.46247
C         14.01437        3.07486       -0.82082
C         13.03609        5.77963       -2.00616
C         14.23028        5.65682        0.86541
I          9.29256        4.75116        4.44151
H          5.62042       -4.88964        1.01188
H          5.03088       -3.94581        2.39221
H          6.77543       -4.09738        2.09824
H          4.79037       -2.67080        0.20743
H          6.52581       -2.81424       -0.06582
H          6.95792       -1.49697        2.05334
H          5.21141       -1.33815        2.29353
H          5.05388       -0.12558        0.05434
H          6.82015       -0.23558       -0.09421
H          5.28566        1.47463        1.77008
H          6.92044        2.76960        3.55064
H          7.00562        3.75776        2.05480
H          9.36849        4.81650        1.26592
H          9.41026        3.20675        0.44278
H         11.71520        2.79563        1.26940
H         11.71142        4.34129        2.17173
H         13.42081        2.51642       -1.55773
H         14.11348        2.45758        0.08333
H         15.02525        3.20126       -1.23518
H         12.42844        5.24907       -2.75175
H         14.01217        5.99851       -2.46196
H         12.54742        6.73726       -1.78115
H         14.33920        5.06070        1.78284
H         13.75635        6.61284        1.12801
H         15.24461        5.87761        0.50257
