84

C          1.26888       10.31277        1.44191
C          2.11648        9.19302        2.05040
C          3.61855        9.50385        2.03308
C          4.46884        8.38950        2.66136
C          5.94054        8.76470        2.67468
O          6.74750        7.74092        3.37813
C          7.27835        6.77500        2.64803
O          7.21233        6.62461        1.43894
C          8.03162        5.76772        3.52219
N          8.90307        4.95050        2.60527
C          8.83588        3.49321        2.83888
C          9.05470        2.94026        4.09561
C          8.97920        1.55482        4.25245
C          8.68801        0.75077        3.14817
C          8.47752        1.30495        1.88328
C          8.55754        2.69286        1.71432
O          8.39187        3.37222        0.54745
C          8.02155        2.63906       -0.63546
C         10.35217        5.44156        2.52439
C         10.48846        6.89971        2.10064
C         11.96456        7.33310        2.00887
C         12.72894        6.79070        0.79400
C         14.16729        7.31752        0.72356
C         14.91441        6.91696       -0.55293
C         16.36619        7.40904       -0.58112
C         17.09228        7.11954       -1.89925
C         18.55669        7.57150       -1.89934
C         19.26089        7.37672       -3.24653
C         20.73448        7.79376       -3.22641
C         21.40297        7.66360       -4.60235
N         22.81524        8.01459       -4.59385
C         23.32109        9.29466       -4.67229
C         24.69455        9.22698       -4.52078
C         25.03253        7.85721       -4.33645
C         23.85431        7.13402       -4.38102
H          0.20007       10.06334        1.47145
H          1.53789       10.49469        0.39117
H          1.40346       11.25822        1.98736
H          1.93369        8.25111        1.50646
H          1.79756        9.01108        3.09041
H          3.79856       10.45114        2.57053
H          3.94435        9.67572        0.99265
H          4.33264        7.45265        2.09755
H          4.13563        8.20144        3.69443
H          6.12717        9.67456        3.25796
H          6.35030        8.88047        1.66303
H          7.30611        5.09835        4.00146
H          8.63028        6.25362        4.29951
H          8.47483        5.11960        1.66043
H          9.27881        3.57838        4.95196
H          9.14420        1.11029        5.23270
H          8.62032       -0.33033        3.26985
H          8.25282        0.65899        1.03648
H          7.06428        2.11814       -0.48849
H          8.80818        1.92319       -0.91336
H          7.91480        3.39313       -1.42066
H         10.83442        4.76172        1.81071
H         10.78996        5.26082        3.51640
H          9.97836        7.55180        2.82706
H          9.99512        7.05619        1.12824
H         12.48967        7.05770        2.94003
H         11.98312        8.43333        1.97376
H         12.18829        7.07592       -0.12549
H         12.75183        5.68687        0.80474
H         14.72837        6.96380        1.60598
H         14.15078        8.41874        0.79965
H         14.37472        7.31789       -1.42891
H         14.89799        5.81832       -0.66394
H         16.92247        6.94851        0.25413
H         16.38479        8.49661       -0.39106
H         16.55556        7.62013       -2.72464
H         17.04284        6.03844       -2.11911
H         19.10784        7.02334       -1.11535
H         18.60998        8.63706       -1.61503
H         18.72499        7.95423       -4.02074
H         19.18250        6.31825       -3.55204
H         21.29280        7.17974       -2.50130
H         20.82708        8.83727       -2.88375
H         20.89277        8.30770       -5.33563
H         21.31622        6.63072       -4.97283
H         22.66287       10.14208       -4.83611
H         25.37882       10.06872       -4.55421
H         26.02670        7.44274       -4.20303
H         23.66763        6.06843       -4.29222
