89

C          0.15728        0.23862        0.18983
C          1.68772        0.22639        0.20901
C          2.29962       -0.98346       -0.50699
C          3.83010       -1.00919       -0.46192
C          4.45779       -2.21028       -1.17715
C          5.98465       -2.24847       -1.06351
C          6.63907       -3.44085       -1.76794
C          8.15396       -3.51029       -1.54873
C          8.83226       -4.68911       -2.25243
C         10.32271       -4.81758       -1.92290
C         11.00589       -5.99512       -2.62389
C         12.44351       -6.23933       -2.15433
C         13.10824       -7.43202       -2.84740
C         14.44842       -7.83958       -2.22855
C         15.05724       -9.07697       -2.89359
C         16.25439       -9.64700       -2.12305
C         16.76334      -10.96560       -2.71582
C         15.76802      -12.16109       -2.67948
C         14.99682      -12.32719       -1.36215
O         14.36617      -13.59385       -1.38513
C         13.62310      -13.86094       -0.18499
C         12.98307      -15.22858       -0.30620
C         16.67626      -13.35528       -2.95237
N         17.89600      -13.03776       -2.11928
C         18.12036      -11.51917       -2.15226
C         18.69463      -11.05059       -0.78734
C         17.97976      -11.55612        0.44627
C         17.07094      -10.75476        1.15551
C         16.35720      -11.26306        2.23805
C         16.50892      -12.59747        2.65591
C         17.45265      -13.38485        1.98344
C         18.18843      -12.86895        0.91025
C         15.70356      -13.14129        3.80532
H         -0.24562        1.11870        0.71003
H         -0.25523       -0.65552        0.68118
H         -0.22959        0.25572       -0.84031
H          2.04288        0.24497        1.25374
H          2.07035        1.15194       -0.25423
H          1.96181       -0.99444       -1.55868
H          1.90557       -1.91154       -0.05537
H          4.16064       -1.00391        0.59211
H          4.22449       -0.07687       -0.90381
H          4.16621       -2.19791       -2.24233
H          4.03859       -3.14378       -0.76104
H          6.26441       -2.26362        0.00511
H          6.40537       -1.31130       -1.46918
H          6.42248       -3.39572       -2.84990
H          6.17769       -4.37746       -1.40694
H          8.35651       -3.57102       -0.46439
H          8.61790       -2.56707       -1.88764
H          8.70124       -4.59200       -3.34464
H          8.31993       -5.62633       -1.97011
H         10.43904       -4.93026       -0.83003
H         10.84356       -3.88001       -2.18531
H         10.99356       -5.83375       -3.71606
H         10.41495       -6.91223       -2.44880
H         12.43790       -6.41229       -1.06315
H         13.05054       -5.33123       -2.31249
H         13.24374       -7.21102       -3.92022
H         12.42355       -8.29828       -2.80311
H         14.29373       -8.04910       -1.15490
H         15.16098       -6.99847       -2.27353
H         15.35902       -8.84112       -3.92822
H         14.27061       -9.84588       -2.97863
H         15.96906       -9.78422       -1.07027
H         17.07157       -8.90710       -2.12654
H         16.95656      -10.77446       -3.78472
H         15.03954      -12.07889       -3.49692
H         14.25083      -11.51639       -1.26430
H         15.66210      -12.24774       -0.48093
H         12.85575      -13.07525       -0.04983
H         14.30844      -13.81083        0.68395
H         12.29912      -15.26597       -1.16378
H         12.40666      -15.45574        0.60045
H         13.74261      -16.01184       -0.43213
H         16.99261      -13.40705       -4.00157
H         16.25548      -14.31487       -2.63273
H         18.72702      -13.55927       -2.41758
H         17.71367      -13.29348       -1.12516
H         18.90187      -11.34950       -2.90446
H         18.71156       -9.95246       -0.80474
H         19.74983      -11.36590       -0.75285
H         16.92621       -9.71411        0.86230
H         15.66392      -10.61122        2.77337
H         17.63702      -14.40760        2.31687
H         18.98590      -13.48491        0.47999
H         15.85199      -12.53798        4.71223
H         15.97679      -14.17738        4.03844
H         14.62740      -13.11706        3.57821
