77

O          4.72447        1.16449       -0.92939
C          3.94719        0.37873       -1.47938
N          2.87250        0.74584       -2.22585
C          2.40326        2.04443       -2.56724
C          1.29102        2.09972       -3.42244
C          0.75838        3.33005       -3.79888
C          1.32787        4.51544       -3.32497
C          2.43433        4.45469       -2.47526
C          2.98377        3.22968       -2.08965
C          4.15422       -1.14246       -1.36974
C          5.26850       -1.49581       -0.35655
C          4.83375       -1.61114        1.06564
N          4.88682       -0.66083        2.03219
C          4.39812       -1.22498        3.19065
N          4.03992       -2.46561        3.01158
N          4.31097       -2.69788        1.69706
C          4.06958       -4.07376        1.18602
C          5.33831       -5.02678        1.22405
C          6.07912       -5.33523        2.58893
C          5.36032       -6.06161        3.79974
C          4.69736       -7.49041        3.63783
C          5.52791       -8.75287        3.17099
C          6.77919       -9.26985        3.98992
C          6.58705       -9.66722        5.50107
F          5.53808      -10.49234        5.65097
F          7.69983      -10.29015        5.91755
F          6.39833       -8.57264        6.26184
F          7.19761      -10.37908        3.33283
F          7.76053       -8.33212        3.92529
F          4.62824       -9.76373        3.10786
F          5.97919       -8.50374        1.91053
F          4.14828       -7.77382        4.84310
F          3.68679       -7.35326        2.73363
F          6.29122       -6.12143        4.77941
F          4.35814       -5.24026        4.21532
F          7.17920       -6.03896        2.25193
F          6.48389       -4.12129        3.07803
F          4.97058       -6.17110        0.62270
F          6.28136       -4.41191        0.44434
F          3.05672       -4.59341        1.87303
F          3.71493       -3.95842       -0.11481
C          5.38534        0.73130        1.95207
C          4.21899        1.71679        2.10387
C          4.65108        3.19175        2.12712
C          4.81001        3.87005        3.54444
C          5.87823        3.34033        4.58066
C          7.43136        3.36866        4.29102
C          8.18993        4.71247        3.94732
C          8.15077        5.88650        4.99561
F          8.50793        5.44801        6.21438
F          9.01430        6.83245        4.59782
F          6.92093        6.42486        5.06427
F          9.49010        4.35286        3.79577
F          7.72945        5.18252        2.76236
F          8.01171        2.82817        5.38962
F          7.66919        2.52595        3.23860
F          5.66490        4.00514        5.73539
F          5.58239        2.00941        4.80253
F          5.01720        5.19129        3.35785
F          3.60740        3.70609        4.17680
F          5.79936        3.38429        1.41151
F          3.66743        3.92358        1.51816
H          2.33020       -0.00978       -2.63711
H          0.84266        1.17539       -3.79569
H         -0.10325        3.36051       -4.46610
H          0.91143        5.47852       -3.61947
H          2.88661        5.37398       -2.10207
H          3.85055        3.19323       -1.43665
H          4.47158       -1.52441       -2.35209
H          3.21023       -1.65148       -1.13055
H          6.03546       -0.71098       -0.41280
H          5.73847       -2.44196       -0.64250
H          4.33179       -0.69693        4.13734
H          5.85658        0.86625        0.97505
H          6.13752        0.83245        2.74118
H          3.62476        1.51690        3.00513
H          3.55957        1.61905        1.23263
