113

C         11.44178      -15.94563       -1.56651
C         11.50902      -15.20889       -0.22621
C         12.29022      -13.89137       -0.29291
C         12.35326      -13.14798        1.04526
C         13.10772      -11.81542        0.98153
C         13.15509      -11.08063        2.32540
C         13.85359       -9.71740        2.26880
C         13.83494       -8.97658        3.61055
C         14.43091       -7.56525        3.55516
C         14.28707       -6.80089        4.87609
C         14.74576       -5.33949        4.81210
C         14.42414       -4.55310        6.08830
C         14.91407       -3.10024        6.05524
C         14.40605       -2.22221        7.21171
C         14.71303       -2.73787        8.62339
S         16.49543       -3.06921        8.84323
C         17.22110       -1.40327        8.93870
C         18.69452       -1.49862        9.36885
O         19.37501       -2.62892        8.84451
C         19.66785       -2.67452        7.42346
C         20.22182       -1.39215        6.83863
O         19.11284       -0.51304        6.60906
C         19.35236        0.84354        6.48207
C         20.61542        1.41469        6.29850
C         20.72615        2.80193        6.18127
C         19.61352        3.65583        6.23294
C         18.36225        3.05022        6.42595
C         18.22630        1.66881        6.54542
C         19.78902        5.17718        6.10231
C         20.57265        5.55828        4.80404
C         20.00906        5.37904        3.36016
C         18.93808        6.43421        3.01063
C         21.20864        5.60321        2.41326
C         19.44082        3.97274        3.09126
C         18.44742        5.92431        6.20908
C         20.66279        5.64696        7.29604
C         16.61072       -3.71843       10.54863
C         16.19118       -5.19503       10.62858
C         16.71387       -6.09619        9.49452
C         18.22785       -6.01840        9.27722
S         18.76300       -6.70295        7.69847
O         20.15820       -6.38453        7.53963
O         18.24731       -8.04402        7.53206
O         17.92835       -5.73698        6.66439
H         10.87233      -16.88166       -1.48383
H         12.44703      -16.20061       -1.93389
H         10.95603      -15.32910       -2.33759
H         11.96857      -15.86479        0.53272
H         10.48615      -15.00425        0.13336
H         11.83149      -13.23559       -1.05421
H         13.31592      -14.09327       -0.64924
H         12.82532      -13.79908        1.80215
H         11.32572      -12.96438        1.40656
H         12.63173      -11.16410        0.22725
H         14.13646      -11.99164        0.62130
H         13.65675      -11.71913        3.07373
H         12.12371      -10.93938        2.69476
H         13.36278       -9.09084        1.50320
H         14.89605       -9.84764        1.92982
H         14.36951       -9.57463        4.36928
H         12.79075       -8.90666        3.96382
H         13.92793       -6.99289        2.75623
H         15.49454       -7.61821        3.26387
H         14.83642       -7.33389        5.67485
H         13.22698       -6.82501        5.18418
H         14.25807       -4.84350        3.95594
H         15.82899       -5.28449        4.59955
H         14.86186       -5.08652        6.95177
H         13.33172       -4.56845        6.24928
H         14.58524       -2.62649        5.11769
H         16.01754       -3.08302        6.01957
H         13.30791       -2.14221        7.16097
H         14.78469       -1.19480        7.10146
H         14.24373       -3.71572        8.80448
H         14.39205       -2.04147        9.41036
H         16.63001       -0.77420        9.61882
H         17.14450       -1.02191        7.91092
H         18.76824       -1.60503       10.46026
H         19.17464       -0.54376        9.10110
H         18.76930       -2.97515        6.85634
H         20.40211       -3.48510        7.33376
H         20.73812       -1.61944        5.88971
H         20.95417       -0.93210        7.52451
H         21.51268        0.80083        6.22819
H         21.72322        3.21727        6.03019
H         17.46179        3.66066        6.47421
H         17.23926        1.21933        6.67092
H         21.53083        5.01481        4.84313
H         20.84526        6.62247        4.90776
H         19.28222        7.44981        3.25581
H         17.98919        6.26551        3.53405
H         18.72144        6.40884        1.93265
H         21.65617        6.59739        2.56100
H         20.89443        5.53194        1.36204
H         21.99511        4.85258        2.58174
H         18.54758        3.76099        3.69376
H         20.17879        3.18627        3.30478
H         19.15453        3.88317        2.03280
H         17.70621        5.58856        5.47370
H         18.60556        6.99904        6.04879
H         18.00808        5.80431        7.21038
H         21.67152        5.21319        7.26168
H         20.20219        5.35535        8.25061
H         20.76869        6.74118        7.28646
H         16.01928       -3.07409       11.21311
H         17.67397       -3.59220       10.79168
H         15.09467       -5.27179       10.66082
H         16.54714       -5.55820       11.60534
H         16.20425       -5.82342        8.55703
H         16.42013       -7.13322        9.70401
H         18.79387       -6.59274       10.02515
H         18.62760       -4.99379        9.26886
H         17.35753       -6.32731        6.13456
