38

S          1.31198       -0.43279       -0.26319
C          2.62806        0.76632        0.17393
C          3.09408        0.52454        1.58756
O          2.46978        0.79997        2.59018
O          4.32982       -0.08845        1.60426
C          4.80698       -0.47665        2.91793
C          4.62339       -1.98458        3.06146
O          3.20874       -2.28847        3.18852
C          2.60341       -1.90294        4.31811
O          3.19738       -1.46436        5.30444
C          1.10531       -2.06066        4.19246
S          0.13214       -1.67707        5.66756
C          6.24723        0.01546        3.09221
C          6.74460        0.12060        4.53655
O          6.79566       -1.21514        5.12544
C          6.32822       -1.19512        6.43138
N          5.20444       -0.14269        6.38708
C          5.93172        0.94690        5.57583
Br         4.75084        2.32956        4.95716
C          4.74362        0.27518        7.62599
C          4.35249        0.64161        8.70284
H          2.13662       -1.48273       -0.48936
H          2.14351        1.74913        0.13012
H          3.44737        0.72319       -0.55022
H          4.15082        0.03611        3.63336
H          5.17077       -2.38198        3.92348
H          4.94091       -2.50990        2.15307
H          0.87862       -3.05623        3.78769
H          0.79035       -1.34195        3.41760
H          0.42916       -2.81041        6.34574
H          6.32000        1.01503        2.64002
H          6.95984       -0.62243        2.54723
H          7.76388        0.53846        4.52271
H          7.05539       -0.84477        7.18417
H          5.90388       -2.16963        6.70076
H          4.38760       -0.60084        5.82538
H          6.60056        1.43049        6.29604
H          3.99024        0.96428        9.65910
