30

Br         5.64213        0.41646        2.05022
C          6.43957        0.52240        0.25656
C          6.36569       -0.80727       -0.47813
C          4.91334       -1.26240       -0.76022
C          4.87747       -2.60370       -1.38737
N          5.12349       -2.90171       -2.67924
C          5.08485       -4.26759       -2.82901
N          4.80924       -4.84556       -1.67647
N          4.68089       -3.80047       -0.80160
I          4.26319       -4.17954        1.17112
C          5.34844       -4.92897       -4.13755
C          6.49488       -4.22166       -4.90574
C          6.69686       -4.78742       -6.33385
N          5.74276       -4.11796       -7.23011
O          6.22111       -2.81810       -5.03374
H          7.47837        0.82675        0.41489
H          5.90000        1.32355       -0.26106
H          6.88688       -1.58130        0.10458
H          6.91031       -0.69834       -1.43122
H          4.40519       -0.54494       -1.42201
H          4.34946       -1.29018        0.18429
H          5.42748       -2.31817       -3.48476
H          4.42492       -4.89860       -4.74065
H          5.58742       -5.98477       -3.95228
H          7.42764       -4.32849       -4.33122
H          6.61637       -5.88565       -6.33224
H          7.71348       -4.53073       -6.65765
H          4.89327       -4.65976       -7.38221
H          6.14921       -3.92765       -8.14336
H          5.81111       -2.77405       -5.94611
