105

C         18.03169       16.99441       15.62593
C         17.52997       15.60564       16.02948
C         17.82981       14.52299       14.98664
C         17.32766       13.13176       15.38464
C         17.64067       12.03974       14.35619
C         17.12185       10.65646       14.76182
C         17.45276        9.54621       13.75878
C         16.92278        8.17113       14.17815
C         17.28470        7.04181       13.20791
C         16.74775        5.67230       13.63712
C         17.16015        4.52869       12.70436
C         16.62830        3.15823       13.13738
C         17.11055        2.00875       12.24593
C         16.59431        0.63253       12.67900
C         17.14688       -0.51638       11.82774
C         16.67204       -1.89850       12.29111
C         17.17088       -3.07798       11.44383
C         18.71035       -3.20611       11.25546
C         19.46908       -3.64769       12.46370
N         20.20187       -4.74273       12.53041
C         20.54194       -5.61669       11.38197
C         21.73551       -5.05936       10.59764
C         22.10401       -5.93155        9.39282
C         23.27968       -5.35072        8.59767
C         23.66941       -6.18405        7.37205
C         24.84635       -5.58351        6.59899
C         20.78539       -5.04753       13.87006
C         20.79870       -3.72262       14.64124
S         19.46428       -2.70225       13.90744
C         19.98488       -6.14018       14.59476
O         20.13840       -7.34929       13.89358
C         19.52834       -8.47623       14.55627
C         19.86728       -9.73821       13.78211
C         19.28295      -10.99929       14.43114
C         19.65207      -12.28596       13.68418
C         19.08250      -13.55197       14.33424
C         19.45709      -14.83584       13.59017
H         17.80247       17.74618       16.39379
H         17.56833       17.32853       14.68547
H         19.12158       16.99657       15.47420
H         16.44199       15.64428       16.20899
H         17.98304       15.31522       16.99265
H         18.91924       14.48204       14.80843
H         17.37861       14.81272       14.02110
H         16.23662       13.17277       15.55118
H         17.76877       12.85040       16.35730
H         18.73265       11.98939       14.19858
H         17.20857       12.32119       13.37973
H         16.02752       10.70606       14.90213
H         17.53836       10.38802       15.74894
H         18.54772        9.49056       13.62507
H         17.04186        9.81110       12.76866
H         15.82498        8.22186       14.28630
H         17.31150        7.92360       15.18187
H         18.38339        6.98720       13.10834
H         16.90345        7.28554       12.20074
H         15.64635        5.71506       13.70033
H         17.09882        5.44944       14.66024
H         18.26254        4.48869       12.64752
H         16.81423        4.74753       11.67907
H         15.52474        3.17825       13.14717
H         16.93526        2.96169       14.17993
H         18.21525        1.99648       12.24104
H         16.80743        2.20117       11.20205
H         15.49173        0.62026       12.64034
H         16.86102        0.45938       13.73677
H         18.25074       -0.46064       11.85476
H         16.86439       -0.36489       10.77137
H         15.57074       -1.92947       12.27060
H         16.93606       -2.04517       13.35268
H         16.76326       -2.98575       10.42559
H         16.78092       -4.02550       11.84632
H         19.11909       -2.23055       10.94770
H         18.90906       -3.90350       10.43436
H         19.65375       -5.72091       10.74570
H         20.75015       -6.60669       11.80363
H         22.60406       -4.97002       11.27093
H         21.50233       -4.03689       10.25651
H         21.22681       -6.03511        8.73087
H         22.35277       -6.95064        9.73417
H         24.15502       -5.25073        9.26309
H         23.02746       -4.32544        8.27374
H         22.79707       -6.27997        6.70405
H         23.92065       -7.20890        7.69320
H         24.61197       -4.57237        6.23444
H         25.10716       -6.19760        5.72711
H         25.74312       -5.50835        7.23145
H         21.80873       -5.41545       13.70855
H         21.74209       -3.17449       14.53018
H         20.58817       -3.86221       15.70772
H         18.91854       -5.84395       14.67899
H         20.39110       -6.22000       15.62357
H         18.43421       -8.32006       14.61091
H         19.91292       -8.53495       15.59217
H         20.96402       -9.82578       13.71579
H         19.49334       -9.63858       12.74986
H         18.18398      -10.91205       14.48669
H         19.63542      -11.07251       15.47461
H         20.75155      -12.36968       13.62455
H         19.29726      -12.21908       12.64052
H         17.98429      -13.46626       14.39306
H         19.43643      -13.61350       15.37732
H         19.08570      -14.82193       12.55462
H         19.03279      -15.72123       14.08194
H         20.54801      -14.97107       13.54817
