34

N          3.15320       -2.94701       -0.30265
C          2.32250       -1.95354       -1.00062
C          2.98807       -0.56788       -0.99407
C          4.51353       -0.57549       -1.22324
P          5.12357       -1.55859       -2.61676
C          4.43579       -0.98642       -4.29822
C          4.67725        0.49027       -4.68844
F          4.03647        1.29063       -3.78966
F          6.01738        0.73981       -4.61489
F          5.00764       -1.79014       -5.24127
F          3.09198       -1.22318       -4.28753
C          6.93075       -1.69756       -2.66719
C          7.55090       -2.40299       -1.42919
C          6.98438       -3.81124       -1.20282
C          9.07557       -2.42605       -1.61093
H          2.74775       -3.87834       -0.40472
H          3.16948       -2.76269        0.70304
H          1.30367       -1.84478       -0.58972
H          2.19070       -2.30160       -2.03733
H          2.83753       -0.08665       -0.01539
H          2.49433        0.07816       -1.73216
H          5.03432       -1.02993       -0.36547
H          4.91069        0.44213       -1.35195
H          4.55562       -2.84781       -2.55517
H          4.31109        0.69962       -5.70652
H          7.32270       -0.67634       -2.78764
H          7.16374       -2.25055       -3.59231
H          7.32875       -1.78653       -0.54136
H          7.10944       -4.44173       -2.09651
H          5.91841       -3.80429       -0.92730
H          7.51940       -4.30245       -0.38002
H          9.36226       -3.04184       -2.47629
H          9.55327       -2.85710       -0.72163
H          9.48643       -1.41790       -1.75763
