34

Br         2.63146       -2.23049       -1.98428
C          3.54820       -1.05344       -0.82192
C          3.55261        0.27592       -0.98509
C          2.87061        1.03745       -2.08453
P          1.11050        1.39354       -1.69379
C          0.86855        2.27409       -0.15655
C          1.24167        3.62591       -0.03663
C          1.03370        4.28731        1.17221
C          0.45854        3.60932        2.25387
C          0.08797        2.26691        2.13388
C          0.29089        1.59140        0.93000
C          0.28835        2.21571       -3.09390
C          0.39939        1.52332       -4.47355
C         -0.17108        0.09946       -4.46587
C         -0.31187        2.40158       -5.51254
Br         4.52632        1.32598        0.26847
H          4.07958       -1.56274       -0.02138
H          2.85838        0.44285       -3.01269
H          3.37608        1.99164       -2.28777
H          0.52032        0.12738       -1.49273
H          1.69502        4.16229       -0.87256
H          1.32131        5.33425        1.27108
H          0.29633        4.13244        3.19680
H         -0.36115        1.74292        2.97782
H          0.00130        0.54317        0.83862
H          0.70030        3.23778       -3.13199
H         -0.76720        2.31408       -2.78703
H          1.46703        1.47520       -4.74843
H         -1.22979        0.09843       -4.16427
H          0.37609       -0.58092       -3.79585
H         -0.11588       -0.33435       -5.47264
H         -1.38581        2.48466       -5.28847
H         -0.21267        1.96039       -6.51295
H          0.10957        3.41554       -5.54844
