63

C          0.83272       -3.23706        4.07190
C          2.36255       -3.28082        4.04616
C          2.93095       -3.78437        2.71471
C          4.46084       -3.85938        2.69153
C          5.03183       -4.31637        1.34522
C          6.56002       -4.42550        1.34351
C          7.14025       -4.84182       -0.01278
C          8.66607       -4.98382        0.01752
C          9.23522       -5.35909       -1.35403
N         10.69915       -5.52561       -1.33959
C         11.42595       -6.70541       -1.15806
C         10.80829       -8.05484       -1.02590
C         11.85059       -9.15054       -0.71835
C         11.20974      -10.47970       -0.53148
C         11.39364      -11.57187       -1.28197
F         12.19778      -11.60096       -2.34222
F         10.81719      -12.73983       -1.06383
F         10.35604      -10.57023        0.52646
N         12.71170       -6.46540       -1.13023
N         12.81404       -5.10449       -1.28531
C         11.60915       -4.51186       -1.40840
N         11.34368       -3.22051       -1.57700
C         12.30695       -2.14106       -1.53725
C         11.45765       -0.84115       -1.49299
O         10.23584       -0.98074       -1.47650
C         12.12952        0.46510       -1.46256
C         13.53241        0.59198       -1.50311
C         14.12098        1.85342       -1.46553
C         13.31782        2.99654       -1.38527
C         11.92264        2.87972       -1.34547
C         11.32887        1.62338       -1.38434
H          0.45754       -2.85891        5.03258
H          0.40232       -4.23820        3.91934
H          0.43683       -2.58360        3.28017
H          2.72724       -3.92541        4.86397
H          2.76499       -2.27454        4.25330
H          2.58372       -3.12577        1.89904
H          2.51338       -4.78259        2.49389
H          4.80377       -4.54568        3.48562
H          4.87938       -2.86982        2.94659
H          4.71357       -3.61321        0.55586
H          4.59584       -5.29371        1.07419
H          6.87483       -5.15120        2.11342
H          6.99675       -3.45648        1.64221
H          6.85315       -4.09984       -0.77788
H          6.68922       -5.79826       -0.32916
H          8.95870       -5.75345        0.75011
H          9.12009       -4.03953        0.36160
H          8.99301       -4.60263       -2.11611
H          8.81113       -6.30540       -1.71442
H         10.27216       -8.30162       -1.95808
H         10.04755       -8.03036       -0.22882
H         12.40355       -8.88360        0.19673
H         12.58897       -9.21518       -1.52740
H         13.72984       -4.67099       -1.31167
H         10.38136       -2.84245       -1.54833
H         12.95808       -2.13835       -2.42717
H         12.94479       -2.19021       -0.63758
H         14.17489       -0.28747       -1.56757
H         15.20604        1.94931       -1.49917
H         13.78205        3.98281       -1.35417
H         11.30099        3.77287       -1.28300
H         10.24513        1.51247       -1.35416
