69

C          1.02283       -1.24985       -2.04436
C         -0.28058       -0.63725       -1.60324
C         -1.46190       -1.38262       -1.55160
C         -2.65909       -0.79040       -1.14995
C         -2.75117        0.55330       -0.76499
C         -1.54695        1.27999       -0.79908
C         -0.34498        0.71304       -1.22507
O         -1.62055        2.64080       -0.44312
C         -0.45326        3.25245       -0.01228
N         -0.80919        4.19157        1.07770
N         -1.34504        3.69925        2.22396
C         -1.57114        4.75321        2.96843
N         -1.15124        5.89146        2.33815
C         -0.68263        5.53290        1.11697
N         -0.02592        6.32460        0.19128
C         -0.52660        7.35864       -0.63549
O          0.17414        7.84024       -1.49239
C         -1.94340        7.98782       -0.41368
C         -3.05094        7.58072       -1.46270
C         -3.44778        6.06669       -1.55606
C         -4.24955        5.53812       -0.32407
O         -3.68305        5.27404        0.70786
O         -5.56572        5.43420       -0.48995
F         -4.19288        5.91795       -2.69158
F         -2.30299        5.33671       -1.70038
F         -4.17789        8.27782       -1.15197
F         -2.60969        7.96706       -2.67913
F         -2.41524        7.76016        0.85494
F         -1.77914        9.32262       -0.54150
C          1.43106        6.02916        0.00172
C          2.30123        7.04277        0.76094
C          3.74126        6.56932        1.00034
C          4.04934        5.88867        2.39009
C          3.34892        4.53568        2.80384
C          3.63442        3.22624        1.97902
F          4.94078        3.01950        1.82140
F          3.08907        2.18667        2.63121
F          3.04716        3.29481        0.75386
F          3.71528        4.28608        4.07715
F          1.98124        4.72996        2.78465
F          5.38337        5.69356        2.47842
F          3.67197        6.78665        3.35068
F          4.15331        5.71781        0.00537
F          4.56386        7.65781        0.96985
C         -4.10858        1.13250       -0.39333
C         -4.18222        1.69433        1.03788
C         -4.59991        2.14524       -1.44672
H          0.85555       -2.16064       -2.63197
H          1.64157       -1.52708       -1.17674
H          1.61156       -0.55293       -2.65648
H         -1.45134       -2.43428       -1.84141
H         -3.57128       -1.39043       -1.13347
H          0.56042        1.31774       -1.30688
H          0.02223        3.85720       -0.80098
H          0.26838        2.53660        0.41129
H         -2.02643        4.73284        3.95316
H         -1.25093        6.85085        2.66179
H         -5.81875        5.63487       -1.41346
H          1.63670        6.06260       -1.07323
H          1.60222        5.01202        0.35600
H          1.85638        7.29258        1.73356
H          2.37555        7.97540        0.18696
H         -4.80276        0.27753       -0.43184
H         -3.59783        2.61366        1.15271
H         -3.81018        0.96104        1.76621
H         -5.22533        1.92636        1.29518
H         -3.91127        2.99705       -1.52797
H         -5.59608        2.52479       -1.17857
H         -4.66593        1.67974       -2.43893
