69

C          1.63855        0.38405       -1.33181
C          3.01586        0.75797       -0.78010
C          3.66276       -0.39376       -0.00270
C          4.98817       -0.03717        0.62193
O          5.37049        1.09298        0.88784
O          5.73136       -1.14877        0.88130
C          7.02223       -0.92237        1.48815
C          6.90631       -0.71034        3.01217
C          8.17276       -0.14600        3.60797
C          9.04770       -0.94629        4.30967
C         10.25933       -0.45965        4.89417
C         10.56554        0.89223        4.75867
C          9.71113        1.76169        4.05525
C          8.50320        1.24453        3.46198
C          7.68742        2.13488        2.75759
N          8.02943        3.43022        2.66356
C          9.16257        3.98712        3.21809
C         10.00288        3.14447        3.90865
C          9.32995        5.47113        3.10315
C          8.90035        6.19344        4.40610
O          9.77799        5.68656        5.40522
C          9.27761        5.67125        6.75679
C          9.93038        4.51631        7.46973
C         11.17728        4.67167        8.09041
C         11.80369        3.58394        8.70357
C         11.18452        2.33060        8.70742
C          9.94182        2.16392        8.08769
C          9.32216        3.25242        7.47109
C          8.97408        7.71271        4.27290
C         11.14588       -1.37915        5.63135
C         11.94443       -0.91002        6.69404
C         12.77728       -1.77856        7.39499
C         12.84031       -3.13061        7.04225
C         12.06252       -3.60834        5.98329
C         11.21928       -2.74423        5.28793
H          1.19960        1.22186       -1.88888
H          0.93991        0.12036       -0.52419
H          1.69511       -0.47516       -2.01570
H          2.93566        1.63627       -0.12310
H          3.68350        1.05406       -1.60440
H          3.79906       -1.28786       -0.62893
H          3.00435       -0.71405        0.82567
H          7.50019       -0.06267        0.99855
H          7.60179       -1.82528        1.26252
H          6.66616       -1.66728        3.49355
H          6.06159       -0.03510        3.21139
H          8.78636       -1.99517        4.45657
H         11.48375        1.29623        5.18400
H          6.77534        1.83876        2.23060
H          7.41150        4.04398        2.13349
H         10.89389        3.56259        4.37263
H          8.75325        5.86411        2.25211
H         10.38692        5.70942        2.91668
H          7.86046        5.89369        4.65201
H          8.18046        5.54503        6.74145
H          9.50664        6.62861        7.25553
H         11.65716        5.65225        8.09772
H         12.76911        3.71772        9.19291
H         11.66254        1.48794        9.20964
H          9.45200        1.18921        8.09603
H          8.34788        3.12452        6.99352
H          9.99845        8.02963        4.03360
H          8.67589        8.19567        5.21261
H          8.30026        8.07679        3.48421
H         11.88853        0.13654        6.99339
H         13.37717       -1.40134        8.22366
H         13.49430       -3.80969        7.58987
H         12.11791       -4.65811        5.69438
H         10.64059       -3.12934        4.44751
