57

C          0.59530        0.63685       -0.38507
C          2.12013        0.53511       -0.30081
C          2.70846       -0.52104       -1.24288
C          4.23431       -0.63502       -1.16668
C          4.80816       -1.73228       -2.06838
C          6.32598       -1.89954       -1.94743
C          6.86711       -3.07438       -2.76847
C          8.37719       -3.29686       -2.55607
C          8.89815       -4.71044       -2.84363
O          8.24154       -5.22978       -4.00279
C          8.83441       -6.43918       -4.46493
C          8.14376       -6.81718       -5.78310
C          8.65119       -8.06803       -6.32827
C          9.09437       -9.11369       -6.74426
C          8.67394       -7.52675       -3.40638
N          9.23824       -7.07198       -2.09094
C          8.77372       -5.68520       -1.64673
C          7.40480       -5.81491       -0.96185
C          7.36842       -6.74007        0.29185
N          7.74224       -8.12790       -0.17643
N          8.28717       -6.24735        1.29239
N          6.07214       -6.79073        0.94696
H          0.20426        1.39326        0.30909
H          0.11540       -0.32154       -0.13601
H          0.26821        0.91639       -1.39759
H          2.41779        0.30077        0.73554
H          2.56938        1.51628       -0.52816
H          2.40919       -0.29180       -2.28083
H          2.25835       -1.50313       -1.01123
H          4.53230       -0.83224       -0.12125
H          4.69053        0.33458       -1.43122
H          4.54245       -1.52455       -3.11918
H          4.32095       -2.69330       -1.82086
H          6.58772       -2.05185       -0.88392
H          6.83224       -0.96631       -2.24757
H          6.67315       -2.91089       -3.83828
H          6.29459       -3.97695       -2.50939
H          8.65327       -3.04315       -1.51791
H          8.93872       -2.59503       -3.18878
H          9.98478       -4.64425       -3.06560
H          9.91518       -6.27378       -4.65694
H          8.29858       -5.99315       -6.49620
H          7.05642       -6.88274       -5.61043
H          9.47457      -10.02977       -7.14767
H          9.18568       -8.45397       -3.69317
H          7.60901       -7.74769       -3.25087
H         10.26302       -7.09711       -2.13066
H          8.85406       -7.74018       -1.29730
H          9.51263       -5.35813       -0.89841
H          6.64079       -6.14834       -1.68114
H          7.10512       -4.81756       -0.62096
H          7.91785       -8.71046        0.64673
H          6.94893       -8.56463       -0.65853
H          9.26911       -6.35242        1.04514
H          8.12354       -6.71214        2.18679
H          5.31347       -6.99362        0.29557
H          5.86580       -5.89724        1.39723
