80

C         13.52099        0.48277       -6.38603
C         13.52209        0.30586       -4.86474
C         12.26606       -0.38427       -4.30868
C         12.01450       -1.81232       -4.82185
C         13.12987       -2.82633       -4.52032
C         13.42355       -3.06810       -3.03052
C         12.24719       -3.59568       -2.20579
S         11.66123       -5.17240       -2.95226
C         10.74262       -5.79223       -1.63114
N         10.48371       -5.31682       -0.44167
N          9.72963       -6.29825        0.22793
C          9.58388       -7.26055       -0.62514
O         10.17479       -7.05226       -1.83173
N          8.94055       -8.48673       -0.48857
C          8.18820       -8.88914        0.58881
N          7.31952       -8.07102        1.17458
C          6.77403       -6.80349        0.68113
C          5.29340       -6.72318        1.06024
O          5.17959       -7.18059        2.39783
C          3.87666       -6.99746        2.96889
C          3.71498       -7.92456        4.16742
O          4.66711       -7.73890        5.20312
C          4.43155       -6.59181        6.02622
C          5.37496       -6.68168        7.21866
O          5.17976       -5.51574        7.99713
C          5.96673       -5.52172        9.18107
N          8.31465      -10.15780        1.00621
C          9.52321      -10.98774        0.88641
C          9.91091      -11.57022        2.25221
C          8.94337      -12.66433        2.75714
S          8.76462      -12.66340        4.55977
C          7.41476      -11.56747        4.81837
S          6.46316      -10.87081        3.64271
N          7.17398      -11.34703        6.16837
C          6.36301      -10.32370        6.70139
N          6.40456      -10.31736        8.00223
C          7.24951      -11.36323        8.37129
C          7.74306      -12.00223        7.27304
H         14.40701        1.03997       -6.71873
H         12.63296        1.04065       -6.71942
H         13.52409       -0.48044       -6.91616
H         13.60974        1.29386       -4.38654
H         14.42496       -0.24941       -4.55968
H         11.38503        0.22917       -4.56008
H         12.31889       -0.38650       -3.20699
H         11.86115       -1.78841       -5.91168
H         11.05943       -2.17551       -4.40647
H         14.06616       -2.50439       -5.00095
H         12.87543       -3.78610       -5.00268
H         13.74329       -2.12953       -2.55046
H         14.26936       -3.76581       -2.93457
H         11.39813       -2.90076       -2.19119
H         12.53920       -3.81491       -1.17192
H          9.27942       -9.22266       -1.10312
H          6.92300       -8.35908        2.07435
H          6.88693       -6.74724       -0.40873
H          7.34679       -5.97913        1.12923
H          4.67612       -7.34914        0.38681
H          4.96152       -5.67465        0.95412
H          3.09560       -7.25757        2.23013
H          3.74365       -5.93610        3.24414
H          3.83841       -8.96604        3.83416
H          2.68368       -7.80664        4.55347
H          3.38245       -6.58013        6.37469
H          4.62218       -5.65353        5.47535
H          6.42351       -6.75101        6.86332
H          5.16203       -7.59460        7.80734
H          5.73405       -4.59900        9.72521
H          7.04709       -5.54242        8.94696
H          5.72735       -6.39142        9.81909
H          7.63866      -10.46618        1.73253
H         10.34713      -10.36289        0.51553
H          9.35159      -11.79228        0.15311
H          9.96541      -10.74608        2.97794
H         10.92553      -11.98553        2.17589
H          9.30608      -13.67119        2.51045
H          7.92550      -12.56091        2.35158
H          5.82167       -9.63364        6.05684
H          7.44301      -11.58979        9.41546
H          8.40165      -12.85561        7.16706
