64

C          0.98271       -0.13492        0.32569
C          2.50099       -0.04247        0.40533
C          3.05218        1.35670        0.04122
C          2.79985        1.79886       -1.43953
C          2.69646        3.27539       -1.37883
N          3.76865        3.84470       -1.82259
C          4.78153        2.89403       -2.31581
C          3.95238        1.59580       -2.50402
C          3.23261        1.60332       -3.90327
C          4.12227        1.67485       -5.12501
C          4.59073        0.47089       -5.68618
C          5.46814        0.45272       -6.76854
C          5.88454        1.66177       -7.33056
C          5.38334        2.85898       -6.82605
C          4.49657        2.89547       -5.73624
C          3.96491        4.24838       -5.31369
C          4.77512        0.28614       -2.31466
C          6.32462        0.35581       -2.18616
N          6.93920       -0.98161       -2.22437
N          6.88301        1.19700       -3.23484
N          6.63372        0.99512       -0.89210
O          2.83614       -0.33891        1.76201
C          4.19159       -0.69793        2.04003
C          4.67484       -1.95867        1.35050
C          6.03931       -2.11779        1.06924
C          6.51713       -3.29307        0.48055
C          5.62689       -4.31856        0.15030
C          4.26516       -4.17028        0.43184
C          3.79319       -3.00309        1.03598
H          0.60614        0.04615       -0.69003
H          0.51551        0.58734        1.00996
H          0.65910       -1.13990        0.62178
H          2.94834       -0.80057       -0.26356
H          4.13325        1.41731        0.23474
H          2.57447        2.06784        0.73629
H          1.85520        1.35540       -1.78706
H          1.88183        3.85936       -0.94545
H          3.92655        4.85263       -1.79068
H          5.56194        2.76354       -1.54459
H          5.25474        3.26525       -3.22701
H          2.50395        2.42904       -3.92483
H          2.63311        0.68080       -3.94798
H          4.23869       -0.47748       -5.27525
H          5.80847       -0.49738       -7.18121
H          6.56916        1.67021       -8.17896
H          5.67129        3.80048       -7.29812
H          3.76905        4.86906       -6.19764
H          4.69222        4.80584       -4.70129
H          3.02638        4.18545       -4.74865
H          4.55017       -0.38805       -3.14936
H          4.43374       -0.24626       -1.41785
H          6.79377       -1.42658       -3.13304
H          6.55038       -1.60542       -1.51111
H          6.52855        0.91617       -4.15142
H          7.89727        1.06825       -3.25696
H          6.42605        0.33046       -0.14311
H          7.64269        1.15818       -0.84143
H          4.20711       -0.83584        3.13183
H          4.88424        0.13694        1.82085
H          6.74651       -1.32965        1.34379
H          7.58388       -3.40733        0.28285
H          5.99442       -5.23461       -0.31271
H          3.56888       -4.97477        0.19145
H          2.73380       -2.90247        1.27770
