34

O          0.70808       -0.50477        1.35098
C          2.02295       -0.84181        1.76216
C          2.78602       -0.99451        0.43686
N          4.23536       -1.13727        0.62596
C          5.00174       -2.24535        0.74709
C          4.55066       -3.66513        0.67365
C          4.90779       -4.47886        1.93482
C          4.10112       -4.07365        3.15653
F          2.75950       -4.19545        2.93460
F          4.41221       -4.81975        4.22758
F          4.31656       -2.75979        3.48782
N          6.27771       -1.86808        0.93736
N          6.31404       -0.54901        0.94301
N          5.10043       -0.09649        0.76199
C          4.78360        1.36440        0.69775
C          5.16970        1.99216        2.03900
O          4.41642        1.32464        3.04207
C          5.48127        1.99428       -0.50620
H          0.09886       -0.61934        2.09674
H          2.05924       -1.78805        2.32445
H          2.49149       -0.05382        2.37759
H          2.60183       -0.12606       -0.20894
H          2.44849       -1.88014       -0.11485
H          5.06605       -4.12175       -0.18464
H          3.47372       -3.72361        0.47169
H          5.97321       -4.37793        2.18048
H          4.70511       -5.54089        1.74488
H          3.69198        1.41862        0.59503
H          4.92277        3.06627        1.97711
H          6.25651        1.89005        2.19867
H          4.69454        1.63934        3.91633
H          6.57226        1.93721       -0.40675
H          5.19067        3.05009       -0.57346
H          5.18532        1.50177       -1.44047
