70

C          1.41827       -0.45948       -0.02954
C          2.79021        0.21681        0.02726
C          3.56087       -0.12804        1.30932
C          4.89817        0.59266        1.38354
O          5.52687        0.33593        2.69278
C          6.38200       -0.66384        2.79029
O          6.75745       -1.36957        1.84449
C          6.89179       -0.86367        4.21386
C          8.22086       -0.10200        4.45001
C          9.39525       -0.66861        3.63098
C         10.72197        0.00637        3.99536
O         10.56895        1.37612        3.69637
C         11.67336        2.18053        4.07210
O         11.18032        3.48260        4.04285
C         12.19644        4.48260        4.15072
C         11.51863        5.84010        3.96373
O         12.45937        6.90629        4.03192
C          9.51327       -2.18380        3.80352
N          8.17908       -2.83229        3.53886
C          7.09203       -2.36592        4.48565
C          5.84920       -3.24205        4.26804
O          4.79196       -2.62756        4.95479
C          3.53424       -3.31371        4.78789
C          2.45366       -2.52969        5.50975
C          1.08152       -3.21028        5.42456
C         -0.01389       -2.44425        6.17455
C         -1.39116       -3.11261        6.09616
C         -2.47500       -2.35094        6.86303
H          0.88620       -0.19811       -0.95327
H          0.78664       -0.15067        0.81603
H          1.50846       -1.55509        0.00265
H          2.66469        1.30987       -0.03958
H          3.38704       -0.07718       -0.85145
H          3.72913       -1.21650        1.36263
H          2.96090        0.14813        2.19137
H          4.77875        1.68263        1.36374
H          5.59186        0.27967        0.59349
H          6.12623       -0.49314        4.90536
H          8.45684       -0.16375        5.52583
H          8.09620        0.96258        4.21750
H          9.22093       -0.45844        2.56218
H         11.55039       -0.44543        3.41239
H         10.95288       -0.14132        5.07161
H         12.51252        2.05145        3.35182
H         12.02146        1.89259        5.09136
H         12.97203        4.33916        3.37610
H         12.68932        4.43003        5.14167
H         10.70567        5.95449        4.70131
H         11.06843        5.88612        2.96216
H         12.68689        7.06455        4.96100
H          9.81001       -2.46105        4.82651
H         10.23372       -2.62085        3.09948
H          8.26254       -3.85547        3.55534
H          7.80451       -2.51153        2.59358
H          7.46650       -2.49754        5.51164
H          6.04878       -4.26579        4.65186
H          5.62470       -3.33341        3.18481
H          3.62168       -4.33855        5.19565
H          3.31164       -3.39822        3.70647
H          2.40054       -1.51623        5.07951
H          2.74840       -2.41094        6.56472
H          1.15288       -4.23297        5.83357
H          0.78875       -3.32560        4.36646
H         -0.08270       -1.41745        5.77411
H          0.27881       -2.33604        7.23358
H         -1.31712       -4.14134        6.48736
H         -1.68708       -3.21262        5.03812
H         -2.22661       -2.27013        7.93166
H         -3.44847       -2.85348        6.78674
H         -2.59801       -1.32904        6.47448
