46

C          3.98021       -6.99963       -1.71268
C          4.45020       -5.68030       -2.32998
C          5.53619       -4.98967       -1.49129
C          5.99670       -3.68311       -2.13942
S          7.27348       -2.92949       -1.05798
C          7.72199       -1.57539       -2.02491
N          7.26347       -1.13420       -3.16938
N          8.04458       -0.02252       -3.51087
C          8.88412        0.12677       -2.53527
O          8.77073       -0.79349       -1.54102
N          9.88072        1.07638       -2.36185
C         10.01732        2.28142       -3.00802
N          9.00138        3.09880       -3.26654
C          7.66152        2.94580       -2.64107
C          7.64392        3.16218       -1.11705
C          8.20134        4.53604       -0.72436
C          6.20463        2.95938       -0.62401
C          9.17789        4.22804       -4.21675
C          9.07891        3.78185       -5.67301
N         11.29523        2.60858       -3.30504
H          3.20410       -7.46964       -2.33046
H          3.55797       -6.84460       -0.70921
H          4.80922       -7.71581       -1.61790
H          3.59281       -4.99744       -2.44653
H          4.83779       -5.86247       -3.34579
H          6.39668       -5.66788       -1.37025
H          5.14753       -4.78965       -0.47898
H          5.17404       -2.96419       -2.24656
H          6.44967       -3.85047       -3.12546
H         10.68650        0.77041       -1.81983
H          7.25077        1.96582       -2.91798
H          7.02879        3.70039       -3.12538
H          8.27005        2.38611       -0.64509
H          7.60313        5.34917       -1.16346
H          9.24457        4.67096       -1.04614
H          8.18101        4.66518        0.36544
H          5.52542        3.70882       -1.05759
H          6.15470        3.06052        0.46761
H          5.82127        1.96368       -0.88714
H         10.12108        4.75530       -4.01089
H          8.39197        4.94912       -3.96872
H          9.87456        3.07318       -5.93719
H          9.16808        4.65448       -6.33262
H          8.11337        3.29909       -5.86844
H         11.97883        1.87789       -3.46044
H         11.54151        3.54130       -3.60865
