57

C          2.49729       -1.32019        1.11726
C          2.90480        0.11918        1.43785
C          3.99083        0.65093        0.49425
C          4.42118        2.08354        0.76918
O          4.94316        2.24331        2.13927
C          6.22375        1.95588        2.34903
O          7.01313        1.59516        1.48188
C          6.59582        2.14509        3.81118
C          8.06250        1.86681        4.16757
C          8.55413        0.42231        3.88091
C          9.61850        0.55437        2.83558
N          9.86085        1.81790        2.62343
C          9.06750        2.77054        3.41504
N          9.89973        3.57411        4.32456
O         10.65686        2.62101        5.09130
O         10.82125        4.23538        3.44165
C         10.24795       -0.50439        2.00286
C         10.65771       -1.81178        2.75675
C          9.74967       -2.64077        3.69364
C          8.47755       -3.20998        3.04983
C         10.60670       -3.78723        4.26074
C          9.16414       -0.80738        0.85771
O          8.97741        0.26373       -0.02509
C         11.51427        0.02035        1.29075
H          1.72061       -1.67649        1.80631
H          3.35294       -2.00748        1.19700
H          2.09938       -1.40642        0.09582
H          3.25982        0.18023        2.47923
H          2.02244        0.77776        1.38103
H          3.62561        0.62958       -0.54649
H          4.87414       -0.00846        0.51360
H          3.57162        2.77705        0.74677
H          5.19422        2.42161        0.06777
H          5.93450        1.50302        4.41361
H          6.32677        3.17386        4.09788
H          8.17399        2.07674        5.23781
H          7.75714       -0.25499        3.54654
H          8.99818       -0.04086        4.77461
H         10.56733        2.13912        1.96117
H          8.60173        3.49615        2.73723
H         10.77167        3.07266        5.94590
H         10.96791        5.09707        3.87037
H         11.56076       -1.55189        3.33180
H         11.01018       -2.48770        1.95867
H          9.45231       -2.02057        4.55545
H          8.71002       -3.76754        2.12983
H          7.73816       -2.43918        2.79286
H          7.98293       -3.90751        3.73892
H         10.93579       -4.46684        3.46019
H         10.03394       -4.38057        4.98538
H         11.50461       -3.40981        4.76932
H          8.21696       -1.13804        1.30356
H          9.59490       -1.65012        0.29471
H          8.21928        0.79219        0.29202
H         12.26190        0.38111        2.01080
H         11.28359        0.80854        0.56176
H         11.97316       -0.79848        0.72250
