71

C          1.52631        0.80561       -0.19948
C          3.01961        0.62230        0.08357
C          3.32158       -0.58276        0.98228
C          4.81149       -0.75602        1.29505
C          5.10202       -1.92594        2.24276
C          6.59217       -2.06045        2.58670
C          6.85033       -3.15492        3.60464
O          8.27733       -3.19584        3.87961
C          8.61841       -4.09192        4.90651
P         10.45551       -4.06885        4.90509
C         11.16919       -2.39991        4.77116
C         10.78206       -1.66874        6.05711
O         10.14115       -2.33328        6.87970
C         11.15584       -0.26410        6.25879
C         11.96370        0.43418        5.33865
C         12.29591        1.76595        5.57414
C         11.81870        2.41116        6.72047
C         11.01206        1.72524        7.63838
C         10.68381        0.39372        7.41406
C         11.25309       -5.13284        6.17525
O         12.62632       -4.94078        5.92545
C         13.52510       -5.94411        6.32480
C         13.14225       -6.95812        7.20368
C         14.05738       -7.94321        7.60144
C         13.64450       -9.04233        8.54551
C         15.36122       -7.86567        7.09733
C         15.72615       -6.83740        6.22933
C         14.82942       -5.84476        5.80925
C         15.30452       -4.75389        4.85892
C         14.60256       -4.79036        3.48737
C         15.27532       -3.34917        5.49192
H          1.34315        1.67771       -0.84157
H          0.95887        0.95428        0.73124
H          1.10357       -0.07420       -0.70665
H          3.41944        1.53491        0.55744
H          3.56612        0.51252       -0.86831
H          2.93644       -1.50080        0.50487
H          2.76181       -0.47771        1.92847
H          5.19888        0.17572        1.74345
H          5.37250       -0.89580        0.35471
H          4.73917       -2.86492        1.79107
H          4.52187       -1.78936        3.17179
H          6.96715       -1.10710        2.99314
H          7.17379       -2.27046        1.67469
H          6.53330       -4.14519        3.22936
H          6.31453       -2.95507        4.55018
H          8.30684       -5.13671        4.70005
H          8.24812       -3.79085        5.90185
H         10.81037       -4.68863        3.68382
H         10.75812       -1.93082        3.86409
H         12.25734       -2.50818        4.63970
H         12.34343       -0.05853        4.44259
H         12.92652        2.30372        4.86657
H         12.07630        3.45573        6.89905
H         10.63990        2.23597        8.52653
H         10.05917       -0.15909        8.11553
H         10.91892       -6.16944        5.98311
H         10.93619       -4.81707        7.18174
H         12.13187       -6.99009        7.61390
H         12.60302       -8.92901        8.87166
H         14.28052       -9.05342        9.44209
H         13.74376      -10.02879        8.06939
H         16.10017       -8.61379        7.38847
H         16.75017       -6.79624        5.85196
H         16.36471       -4.98624        4.66712
H         13.54193       -4.50999        3.56018
H         14.65251       -5.79407        3.04417
H         15.08683       -4.08962        2.79274
H         14.25150       -3.02532        5.72660
H         15.71964       -2.61203        4.80845
H         15.84695       -3.32798        6.42908
