52

C          0.84455        0.02702       -0.63679
C          2.36905        0.00109       -0.50390
C          2.94714        1.30849        0.04758
C          4.47218        1.30078        0.19192
C          5.03111        2.62093        0.73059
C          6.55150        2.62330        0.91918
C          7.07513        3.95065        1.47624
C          8.58381        3.96200        1.74028
C          9.06165        5.29849        2.32287
C         10.56804        5.29114        2.62688
C         11.10412        6.58769        3.23657
I         13.31045        6.49952        3.27741
N         10.80265        7.76601        2.38862
C         10.37901        8.80805        3.01918
C         10.32133        8.56220        4.49163
C         10.52742        7.02885        4.60092
C         11.45215        9.43918        5.07473
O         12.11196       10.16524        4.35092
O         11.56570        9.27533        6.38497
C         12.66590       10.00616        7.05898
C         13.90418        9.13727        7.12814
H          0.45867       -0.91989       -1.03812
H          0.51561        0.83178       -1.31111
H          0.36144        0.19539        0.33737
H          2.82254       -0.20981       -1.48718
H          2.66895       -0.83391        0.15181
H          2.49031        1.52162        1.03051
H          2.64713        2.14384       -0.60991
H          4.93316        1.07879       -0.78648
H          4.77245        0.47585        0.86169
H          4.54822        2.85128        1.69681
H          4.74669        3.44195        0.04899
H          7.04561        2.40592       -0.04367
H          6.83762        1.80249        1.59968
H          6.54377        4.18120        2.41650
H          6.81990        4.76591        0.77644
H          9.13068        3.75023        0.80574
H          8.84394        3.14785        2.43791
H          8.48308        5.51258        3.23669
H          8.81953        6.10652        1.61054
H         11.13394        5.06831        1.70876
H         10.81448        4.48267        3.33196
H         10.99296        7.75248        1.38290
H         10.16872        9.74428        2.50244
H          9.36573        8.88885        4.92870
H          9.55827        6.53475        4.75150
H         11.17704        6.75344        5.43586
H         12.25045       10.22650        8.04874
H         12.83617       10.93915        6.50868
H         13.70289        8.19724        7.65797
H         14.68765        9.67497        7.67973
H         14.29283        8.91258        6.12626
