82

C          5.30878        5.28138       13.69231
C          5.58354        6.08945       12.42190
C          6.55837        5.39492       11.46572
C          6.85495        6.19745       10.19497
C          7.85428        5.50804        9.26134
C          8.17978        6.31080        7.99726
C          9.22998        5.63302        7.11240
C          9.59512        6.42606        5.85272
C         10.70202        5.75140        5.03654
C         11.10803        6.51472        3.77001
C         12.24418        5.81072        3.02305
C         12.65395        6.46843        1.68081
C         13.23372        7.83451        1.80335
N         12.59586        8.98168        1.55548
N         13.35506       10.08522        1.77198
C         14.51767        9.60903        2.17034
N         14.47633        8.21261        2.19833
C         15.59333        7.30619        2.55380
C         16.26325        6.63513        1.34910
C         16.90190        7.58170        0.32794
C         17.56529        6.81949       -0.82515
C         18.09598        7.73729       -1.93021
C         18.75284        6.93281       -3.04935
O         19.22417        7.77932       -4.12094
C         18.28747        8.11292       -5.06375
O         17.11995        7.77175       -4.99923
C         18.90904        8.91897       -6.14210
C         18.19068        9.31944       -7.19714
C         15.71107       10.43201        2.52612
C         15.48133       11.95963        2.51455
C         14.58677       12.41800        3.67333
C         16.84146       12.66767        2.55764
H          4.60786        5.80235       14.35875
H          6.23557        5.10264       14.25770
H          4.87377        4.29957       13.45314
H          5.98738        7.07933       12.69397
H          4.63444        6.28383       11.89456
H          6.15296        4.40610       11.18760
H          7.50528        5.19390       11.99763
H          7.24595        7.19138       10.47559
H          5.91245        6.38467        9.65126
H          7.46210        4.51711        8.97294
H          8.78955        5.31284        9.81526
H          8.53976        7.31406        8.28581
H          7.25561        6.47426        7.41612
H          8.87014        4.63163        6.81871
H         10.14455        5.46263        7.70736
H          9.91882        7.44176        6.14060
H          8.69732        6.55666        5.22417
H         10.37883        4.73497        4.75347
H         11.59133        5.61902        5.67719
H         11.40814        7.54146        4.04592
H         10.23302        6.61312        3.10345
H         11.94300        4.78002        2.78144
H         13.12334        5.72102        3.68087
H         11.77234        6.54244        1.02578
H         13.37681        5.82691        1.15700
H         11.63358        9.08703        1.24352
H         15.19396        6.55470        3.24728
H         16.31358        7.91624        3.11260
H         15.54133        5.97760        0.83888
H         17.03063        5.96377        1.76651
H         17.65216        8.21840        0.82730
H         16.13813        8.26149       -0.08822
H         16.83274        6.11857       -1.26152
H         18.38368        6.19771       -0.42380
H         18.82640        8.45178       -1.51811
H         17.26670        8.32138       -2.35740
H         18.04418        6.19950       -3.46143
H         19.65090        6.41201       -2.69031
H         19.96959        9.15075       -6.03740
H         17.13291        9.06221       -7.27366
H         18.63718        9.90104       -8.00281
H         16.51982       10.17388        1.82207
H         16.07005       10.12428        3.52472
H         14.98546       12.21565        1.56423
H         15.05576       12.18886        4.64274
H         13.59498       11.94932        3.64777
H         14.43820       13.50521        3.63003
H         17.38582       12.42636        3.48377
H         16.70835       13.75689        2.52879
H         17.47639       12.38500        1.70594
