64

C          0.79550        1.02297        1.27092
C          2.31800        0.99685        1.11598
C          2.82913        1.92755        0.01011
C          4.35183        1.89892       -0.15938
C          4.85188        2.82149       -1.27645
C          6.37155        2.76738       -1.47449
C          6.84683        3.70471       -2.59669
C          8.36300        3.61950       -2.78252
S          8.92327        4.58634       -4.23194
C          8.73383        6.30544       -3.62919
C          9.24905        7.30944       -4.65243
O          8.64930        6.99460       -5.88675
C          8.90970        7.96597       -6.91328
C          8.10163        7.57697       -8.14358
O          8.33653        8.58590       -9.10130
C          7.61255        8.39405      -10.31685
C          7.89793        9.59625      -11.20597
O          7.17552        9.41338      -12.40856
C          7.35510       10.49133      -13.31756
C         10.73724        4.35614       -4.22913
C         11.14450        2.92450       -4.58095
C         12.67310        2.81270       -4.71841
C         13.13023        1.37867       -4.99479
H          0.46249        0.34274        2.06596
H          0.29301        0.71755        0.34127
H          0.43552        2.03092        1.52524
H          2.64985       -0.03334        0.90269
H          2.79194        1.27459        2.07246
H          2.50327        2.96080        0.22353
H          2.35102        1.65233       -0.94634
H          4.67631        0.86456       -0.36787
H          4.83310        2.18176        0.79289
H          4.54896        3.86008       -1.05686
H          4.35318        2.55258       -2.22361
H          6.67676        1.73330       -1.70825
H          6.87886        3.03442       -0.53182
H          6.54630        4.73596       -2.35380
H          6.34332        3.43886       -3.54009
H          8.67001        2.59045       -3.02076
H          8.92785        3.95963       -1.90152
H          9.24269        6.39667       -2.65961
H          7.65025        6.42187       -3.49354
H         10.35550        7.29445       -4.71610
H          8.96319        8.32005       -4.30004
H          9.98772        7.99405       -7.15246
H          8.60453        8.96981       -6.56944
H          7.02746        7.51081       -7.88033
H          8.41873        6.58173       -8.51462
H          6.52766        8.32094      -10.11596
H          7.93183        7.46204      -10.81915
H          8.98627        9.67139      -11.39965
H          7.58511       10.52490      -10.68868
H          6.75120       10.26572      -14.20404
H          8.41394       10.59629      -13.61697
H          7.01421       11.44812      -12.88113
H         11.11850        4.67663       -3.24822
H         11.08948        5.06381       -4.99458
H         10.66197        2.61644       -5.52232
H         10.80260        2.22701       -3.80034
H         13.14838        3.18257       -3.79501
H         13.01251        3.47775       -5.52892
H         12.84194        0.70031       -4.17923
H         14.22204        1.33239       -5.09328
H         12.69572        0.98952       -5.92643
