95

C          0.49178       -0.08798       -0.50332
C          2.01969       -0.12683       -0.42411
C          2.61879        1.09206        0.28440
C          4.14754        1.06479        0.37386
C          4.74216        2.28479        1.08381
C          6.27098        2.25960        1.17495
C          6.86491        3.48980        1.86712
C          8.39419        3.47029        1.95375
C          8.98363        4.70809        2.63607
C         10.51296        4.69762        2.72336
C         11.09040        5.93587        3.41506
C         12.61889        5.93525        3.51706
C         13.17515        7.16347        4.24343
C         14.70169        7.17278        4.37177
C         15.23032        8.38076        5.15172
C         16.75434        8.39820        5.30774
C         17.25444        9.58709        6.13502
C         18.77848        9.61754        6.29847
C         19.24683       10.81044        7.14126
C         20.77505       10.84812        7.25201
N         21.25684       12.03291        7.98502
N         21.50955       13.18589        7.41037
N         21.80191       14.06842        8.34658
C         21.72268       13.45379        9.54714
N         21.36175       12.16304        9.33560
C         21.24300       11.04350       10.27548
C         22.54748       10.29900       10.51064
C         23.71960       10.61457        9.81285
C         24.90296        9.91438       10.06008
C         24.91439        8.89526       11.01188
C         23.74501        8.58034       11.70740
C         22.54502        9.26619       11.47559
C         21.29838        8.90646       12.24358
C         22.00727       14.09370       10.84749
C         23.45378       14.63271       10.94695
C         23.59438       15.55639       12.16430
N         22.62825       16.65273       12.08448
H          0.08997       -0.97280       -1.01614
H          0.14482        0.80096       -1.05115
H          0.04277       -0.05198        0.50059
H          2.44065       -0.19739       -1.44140
H          2.33933       -1.04357        0.09975
H          2.19517        1.16462        1.30189
H          2.30032        2.01003       -0.24082
H          4.57095        0.99361       -0.64363
H          4.46558        0.14646        0.89838
H          4.31759        2.35730        2.10073
H          4.42422        3.20233        0.55788
H          6.69456        2.17453        0.15862
H          6.58946        1.34879        1.71211
H          6.44366        3.57496        2.88445
H          6.54306        4.39959        1.33017
H          8.81535        3.37910        0.93700
H          8.71756        2.56495        2.49719
H          8.56257        4.79780        3.65311
H          8.65674        5.61268        2.09352
H         10.93649        4.61474        1.70700
H         10.84153        3.79197        3.26311
H         10.66046        6.01737        4.42911
H         10.76223        6.84133        2.87489
H         13.05455        5.87768        2.50423
H         12.94904        5.02146        4.04182
H         12.72797        7.21884        5.25172
H         12.84836        8.07775        3.71776
H         15.15634        7.15545        3.36598
H         15.03153        6.24476        4.87092
H         14.76366        8.39592        6.15239
H         14.90518        9.30968        4.65165
H         17.22681        8.41976        4.31061
H         17.08465        7.45794        5.78265
H         16.78090        9.56107        7.13183
H         16.92230       10.52746        5.66285
H         19.25397        9.66369        5.30426
H         19.11981        8.67621        6.76218
H         18.79425       10.76012        8.14539
H         18.90711       11.75217        6.68318
H         21.24260       10.93756        6.26293
H         21.19345        9.96058        7.74604
H         20.44904       10.38136        9.89867
H         20.85447       11.47896       11.20800
H         23.73295       11.41378        9.06940
H         25.80797       10.16897        9.50841
H         25.83282        8.34359       11.21350
H         23.75718        7.78267       12.45233
H         21.49321        8.08161       12.93815
H         20.47834        8.58858       11.57987
H         20.92056        9.75282       12.83993
H         21.79446       13.40342       11.67535
H         21.34185       14.96898       10.96309
H         23.68516       15.19525       10.02961
H         24.17376       13.80437       11.01583
H         24.64781       15.88476       12.22257
H         23.38930       14.98858       13.08496
H         22.93880       17.37520       11.43404
H         22.49736       17.10235       12.98933
