71

C          0.57787        0.21324        0.85876
C          2.08713        0.15357        0.60930
C          2.60689       -1.26678        0.36032
C          4.11388       -1.33224        0.09334
C          4.65244       -2.75719       -0.06995
C          6.15741       -2.81465       -0.35122
C          6.71885       -4.23893       -0.41175
C          8.22368       -4.29263       -0.69482
C          8.80997       -5.70712       -0.63465
C         10.32365       -5.75035       -0.86958
C         10.93750       -7.13979       -0.67020
C         12.46077       -7.15913       -0.84197
C         13.09061       -8.52333       -0.53773
C         14.61590       -8.58405       -0.69800
C         15.37155       -7.67542        0.30646
C         16.86247       -7.81307        0.16271
C         17.57038       -8.78503        0.93892
C         16.88768       -9.60548        2.00505
C         16.69424       -8.87221        3.35951
C         17.97824       -8.50431        4.08064
F         18.68086       -7.52012        3.35196
C         18.93834       -8.98588        0.71723
C         19.61395       -8.23868       -0.23269
N         18.92754       -7.32267       -0.92176
C         17.60138       -7.07099       -0.77156
C         17.21197       -5.93954       -1.74447
O         18.11181       -5.56299       -2.48422
C         15.85654       -5.30681       -1.77941
H          0.23861        1.24182        1.04310
H          0.29434       -0.39121        1.73367
H          0.01455       -0.17328       -0.00376
H          2.62124        0.58668        1.47228
H          2.34384        0.79123       -0.25381
H          2.06385       -1.71055       -0.49290
H          2.36299       -1.89926        1.23271
H          4.65148       -0.83730        0.92196
H          4.35071       -0.74421       -0.81123
H          4.10803       -3.26601       -0.88515
H          4.43091       -3.33473        0.84529
H          6.69426       -2.24928        0.43169
H          6.37289       -2.29225       -1.30021
H          6.17923       -4.81699       -1.18246
H          6.51233       -4.74858        0.54621
H          8.75172       -3.65404        0.03589
H          8.42779       -3.84881       -1.68516
H          8.30291       -6.35176       -1.37345
H          8.58598       -6.14670        0.35334
H         10.81368       -5.03968       -0.17968
H         10.54966       -5.38764       -1.88779
H         10.47932       -7.85628       -1.37331
H         10.68526       -7.50449        0.34083
H         12.89084       -6.38380       -0.18327
H         12.71357       -6.86057       -1.87554
H         12.65054       -9.28213       -1.20420
H         12.82109       -8.83194        0.48720
H         14.89979       -8.30559       -1.72711
H         14.96031       -9.62241       -0.56784
H         15.07116       -7.94911        1.32495
H         15.06321       -6.63378        0.17867
H         17.48046      -10.51526        2.17841
H         15.90419       -9.93870        1.64595
H         16.11874       -9.53941        4.01971
H         16.08964       -7.96178        3.23053
H         18.65496       -9.36624        4.19755
H         17.76327       -8.08224        5.07293
H         19.48873       -9.72391        1.29847
H         20.67487       -8.34054       -0.45442
H         19.34851       -6.72074       -1.65633
H         15.61430       -4.85317       -0.80649
H         15.07002       -6.04045       -2.00206
H         15.86149       -4.52969       -2.54980
