54

C          1.56413       -2.01964       -0.43471
C          2.98205       -1.49862       -0.21206
S          3.16702        0.05267       -1.18151
C          4.76515        0.54866       -0.78744
N          5.35650        1.65814       -1.18227
N          6.62458        1.64563       -0.64102
C          6.71562        0.54375        0.03487
O          5.59839       -0.22905        0.01414
N          7.82899        0.10360        0.77163
C          7.76261       -1.07821        1.49806
C          8.84183       -1.48044        2.22775
C         10.03792       -0.71451        2.26267
C         10.08429        0.50605        1.48962
C          8.94946        0.86771        0.75854
C         11.26714        1.32211        1.49514
C         12.33325        0.89268        2.26904
C         12.28774       -0.30216        3.02108
C         11.16002       -1.10197        3.02084
C         11.38792        2.58135        0.67438
C         12.03687        2.28531       -0.69547
C         12.17262        3.52141       -1.60578
C         11.34675        3.50073       -2.94675
C          9.76848        3.41918       -2.91731
C          8.86487        4.52982       -2.24855
C          8.95304        6.04758       -2.68147
C          8.64958        6.41688       -4.18186
F          7.47804        5.88912       -4.57707
F          8.58186        7.75377       -4.27869
F          9.62583        5.97454       -4.99238
F          8.02659        6.68554       -1.91909
F         10.17868        6.52969       -2.36563
F          7.58859        4.12082       -2.44016
F          9.11430        4.50483       -0.90223
F          9.36424        3.28480       -4.20050
F          9.44230        2.25586       -2.25321
F         11.69826        4.57848       -3.68278
F         11.73799        2.37444       -3.61833
F         11.87571        4.67947       -0.93749
F         13.47760        3.62812       -2.01321
H          1.43570       -2.95624        0.12330
H          1.37085       -2.23208       -1.49449
H          0.80883       -1.30737       -0.07807
H          3.73508       -2.21559       -0.56371
H          3.16437       -1.26506        0.84488
H          6.82440       -1.62039        1.43908
H          8.77189       -2.40842        2.79489
H          8.87671        1.76458        0.14659
H         13.24003        1.49920        2.30026
H         13.15784       -0.59110        3.61141
H         11.12642       -2.02353        3.60235
H         12.01193        3.29938        1.22229
H         10.41678        3.07167        0.54063
H         11.48799        1.49835       -1.22679
H         13.05639        1.90586       -0.54613
