118

C         28.53028       -1.31609       -7.74018
C         28.00661       -2.42006       -6.81803
C         26.47643       -2.50742       -6.78192
C         25.94332       -3.61370       -5.86600
C         24.41353       -3.67748       -5.80182
C         23.88248       -4.78677       -4.88804
C         22.35440       -4.81501       -4.77785
C         21.82365       -5.91804       -3.85606
C         20.29940       -5.90312       -3.69657
C         19.77135       -6.98314       -2.74695
C         18.24995       -6.95054       -2.55748
C         17.74727       -8.01167       -1.57070
C         16.24079       -8.00002       -1.28191
C         15.30008       -8.16595       -2.50537
C         15.48635       -9.42326       -3.28239
N         16.53526       -9.68948       -4.06204
N         16.44603      -10.87776       -4.70061
C         15.28962      -11.37526       -4.31506
N         14.66361      -10.49566       -3.42689
C         13.33575      -10.61514       -2.77954
C         12.98831      -11.97236       -2.15927
C         14.00493      -12.58182       -1.19005
S         14.32386      -11.58814        0.29690
C         16.10729      -11.33017        0.20481
S         17.05477      -11.74191       -1.10075
N         16.57657      -10.74993        1.34608
C         15.70444      -10.41620        2.45526
C         15.72265      -11.22759        3.59474
C         14.91862      -10.89719        4.68481
C         14.10484       -9.76092        4.63971
C         14.09788       -8.94946        3.50290
C         14.90227       -9.27069        2.40817
C         17.98334      -10.49340        1.56762
C         18.38930       -9.18752        1.85806
C         19.73684       -8.92485        2.11242
C         20.67058       -9.96335        2.08729
C         20.25235      -11.27061        1.81973
C         18.90848      -11.54233        1.56311
C         14.76620      -12.68767       -4.79604
C         15.65495      -13.33184       -5.86901
C         15.16203      -14.72439       -6.27541
C         16.08471      -15.39826       -7.29727
C         15.66492      -16.82491       -7.66657
C         16.62457      -17.50041       -8.65248
C         16.27027      -18.95883       -8.96092
C         17.25169      -19.63428       -9.92485
C         16.94040      -21.11051      -10.19012
C         17.93642      -21.78756      -11.13849
C         17.63309      -23.26770      -11.38359
H         29.62831       -1.27696       -7.73953
H         28.16319       -0.32691       -7.42787
H         28.20468       -1.47485       -8.77916
H         28.38337       -2.25513       -5.79420
H         28.41830       -3.39288       -7.13658
H         26.09631       -2.66575       -7.80682
H         26.06569       -1.53494       -6.45670
H         26.34276       -3.46646       -4.84687
H         26.33637       -4.58883       -6.20434
H         24.00946       -3.81715       -6.82005
H         24.02453       -2.70361       -5.45536
H         24.31537       -4.66437       -3.87938
H         24.24279       -5.76484       -5.25277
H         21.91609       -4.93578       -5.78431
H         22.00025       -3.83523       -4.41162
H         22.29143       -5.81565       -2.86107
H         22.14394       -6.90301       -4.23885
H         19.82655       -6.01962       -4.68841
H         19.98324       -4.91137       -3.32849
H         20.25429       -6.87164       -1.76097
H         20.07570       -7.98013       -3.11307
H         17.76849       -7.05769       -3.55091
H         17.94377       -5.94910       -2.20803
H         18.26341       -7.86734       -0.60978
H         18.05733       -9.02263       -1.88541
H         15.95857       -7.04308       -0.81532
H         16.00844       -8.79045       -0.55753
H         15.44956       -7.32980       -3.20638
H         14.25683       -8.09764       -2.17439
H         17.36341       -9.11010       -4.17790
H         12.57571      -10.34780       -3.52812
H         13.31910       -9.85130       -1.99417
H         12.77986      -12.71312       -2.94378
H         12.02430      -11.81224       -1.65175
H         14.99908      -12.72823       -1.65081
H         13.63622      -13.55672       -0.84481
H         16.36579      -12.10757        3.61834
H         14.92950      -11.52788        5.57377
H         13.48024       -9.50390        5.49543
H         13.47179       -8.05737        3.47020
H         14.91056       -8.63825        1.52025
H         17.65318       -8.38435        1.89605
H         20.05475       -7.90642        2.33760
H         21.72271       -9.75594        2.28458
H         20.97505      -12.08686        1.81643
H         18.57797      -12.55877        1.35482
H         13.73889      -12.54987       -5.17485
H         14.68688      -13.37050       -3.93443
H         16.68370      -13.40242       -5.48478
H         15.70375      -12.67444       -6.75108
H         14.13956      -14.65679       -6.68639
H         15.08872      -15.36282       -5.37716
H         17.11225      -15.41854       -6.89379
H         16.13210      -14.77994       -8.21059
H         14.64577      -16.81395       -8.09110
H         15.60301      -17.43335       -6.74685
H         17.64992      -17.45761       -8.24439
H         16.65119      -16.92178       -9.59252
H         15.24952      -19.01070       -9.37888
H         16.23829      -19.53054       -8.01642
H         18.27521      -19.54780       -9.51864
H         17.26159      -19.08413      -10.88223
H         15.92092      -21.20272      -10.60495
H         16.92432      -21.65724       -9.23044
H         18.95452      -21.68422      -10.72594
H         17.94593      -21.24796      -12.10065
H         17.65091      -23.83997      -10.44399
H         18.36701      -23.72287      -12.06257
H         16.63750      -23.40313      -11.83208
