46

C          0.77556       -0.25251       -0.36971
C          2.29448       -0.11092       -0.24261
C          2.86810        1.05349       -1.05820
C          4.39201        1.17475       -0.95987
C          4.97131        2.36136       -1.73810
C          6.49939        2.44095       -1.66158
C          7.09223        3.66397       -2.36915
C          8.62307        3.70323       -2.30773
C          9.22675        4.94421       -2.97737
C         10.76582        4.91739       -2.94445
C         11.34651        6.17908       -3.57299
S         13.16145        6.03666       -3.82939
C         13.60479        7.68025       -4.50566
C         15.08938        7.75214       -4.85739
C         15.41623        9.09279       -5.51986
F         14.68176        9.27241       -6.64791
F         15.14185       10.12783       -4.68465
F         16.71801        9.14990       -5.84966
I         14.12282        6.01636       -1.62637
H          0.39885       -1.09289        0.22893
H          0.47645       -0.42810       -1.41380
H          0.25881        0.65646       -0.02718
H          2.77992       -1.04926       -0.56044
H          2.56497        0.02342        0.81843
H          2.40219        1.99705       -0.72311
H          2.57894        0.93461       -2.11727
H          4.85494        0.24018       -1.32293
H          4.68382        1.26208        0.10168
H          4.53491        3.29903       -1.35164
H          4.66028        2.29613       -2.79533
H          6.93298        1.52252       -2.09467
H          6.81017        2.45046       -0.60208
H          6.68213        4.58367       -1.91689
H          6.76860        3.67274       -3.42450
H          9.03125        2.79631       -2.78651
H          8.94929        3.66581       -1.25394
H          8.86070        5.85386       -2.47252
H          8.88358        5.00691       -4.02356
H         11.12895        4.02691       -3.48254
H         11.10977        4.83021       -1.90176
H         11.15044        7.09514       -2.99798
H         10.99360        6.31926       -4.61071
H         13.29102        8.45071       -3.78914
H         12.97590        7.74669       -5.40956
H         15.37634        6.95822       -5.56037
H         15.72228        7.67244       -3.96267
