50

C          0.91798       -1.63317       -0.43351
C          2.25439       -0.96923       -0.11438
S          3.52902       -1.71883       -1.21072
C          4.91076       -0.82470       -0.71503
N          5.05009        0.14790        0.15738
N          6.40190        0.49260        0.15788
C          6.95470       -0.28836       -0.70241
O          6.12420       -1.16334       -1.32028
N          8.34804       -0.33953       -1.07213
C          9.22424        0.50226       -0.16009
C         10.68724        0.13753       -0.51861
O         10.72895       -0.74864       -1.63763
C         10.10241       -0.27479       -2.85424
C          8.60388        0.04920       -2.52782
C         10.86314        0.91674       -3.47699
C         10.76026        2.27221       -2.79490
O          9.73795        2.75336       -2.32647
O         11.94394        2.90313       -2.81235
C         11.95407        4.25344       -2.27151
C         10.13823       -1.49223       -3.81517
C         11.49574       -1.89313       -4.34537
C         11.85605       -1.56521       -5.66123
C         13.10410       -1.92800       -6.17215
C         14.00900       -2.62906       -5.37179
C         13.65740       -2.96845       -4.06216
C         12.40957       -2.60509       -3.55250
H          0.14529       -1.20164        0.21615
H          0.94358       -2.71527       -0.24870
H          0.61428       -1.46271       -1.47480
H          2.56802       -1.14190        0.92254
H          2.24118        0.11012       -0.30837
H          8.69530       -1.31281       -0.98250
H          8.95815        0.25517        0.87278
H          8.97323        1.54758       -0.36596
H         11.15911       -0.42179        0.29794
H         11.27712        1.04993       -0.68951
H          7.92152       -0.55086       -3.14023
H          8.36759        1.11649       -2.60121
H         10.47758        1.06543       -4.49989
H         11.91601        0.63246       -3.58663
H         12.96301        4.62810       -2.46233
H         11.74667        4.22949       -1.19418
H         11.20098        4.87024       -2.77601
H          9.47457       -1.25658       -4.66155
H          9.67530       -2.33752       -3.27787
H         11.14718       -1.03156       -6.29903
H         13.36529       -1.67096       -7.19911
H         14.98112       -2.92013       -5.77047
H         14.35451       -3.52703       -3.43669
H         12.14123       -2.88253       -2.53237
