69

C          1.17858       -0.29756       -1.32178
C          2.70480       -0.19680       -1.25575
C          3.20644        1.22840       -0.99847
C          4.73365        1.35268       -0.96121
C          5.21605        2.77151       -0.64196
C          6.73964        2.93492       -0.67521
C          7.19315        4.35713       -0.32529
C          8.71295        4.55619       -0.42055
C          9.11395        5.97416       -0.05986
O         10.55340        6.11463       -0.21415
C         11.00435        7.40178        0.11618
P         12.84092        7.32533        0.12831
C         13.57935        6.27333       -1.18277
C         13.43880        6.96746       -2.55249
O         12.16210        7.57031       -2.73977
C         15.04882        5.89179       -0.88063
C         15.27993        4.98545        0.33098
C         13.54836        8.99815        0.20177
C         13.20806        9.79321        1.48579
C         13.62948        9.15010        2.81561
C         15.14065        8.88531        2.94892
N         15.48180        8.21764        4.18967
C         15.61110        6.85069        4.34546
C         15.80646        6.58590        5.68750
C         15.78616        7.83279        6.37182
C         15.57877        8.82089        5.42806
H          0.85025       -1.33072       -1.49900
H          0.77185        0.32377       -2.13362
H          0.71437        0.04155       -0.38359
H          3.13991       -0.57086       -2.19812
H          3.08502       -0.86304       -0.46288
H          2.78713        1.59297       -0.04383
H          2.80677        1.90139       -1.77777
H          5.14953        1.03247       -1.93278
H          5.14094        0.65081       -0.21228
H          4.83880        3.06746        0.35254
H          4.76251        3.47891       -1.35840
H          7.11446        2.66675       -1.67827
H          7.20461        2.21930        0.02480
H          6.85256        4.60497        0.69459
H          6.68871        5.07289       -0.99706
H          9.05510        4.33486       -1.44462
H          9.23140        3.85238        0.24999
H          8.84722        6.21175        0.98636
H          8.61551        6.71108       -0.71598
H         10.69189        7.71926        1.13221
H         10.69697        8.17923       -0.60770
H         13.15829        6.67054        1.33792
H         12.94657        5.36787       -1.15986
H         13.66977        6.23534       -3.34311
H         14.17469        7.78119       -2.63921
H         11.51650        6.88164       -2.96810
H         15.66291        6.80387       -0.80225
H         15.41229        5.37844       -1.78545
H         15.05317        5.48067        1.28534
H         16.33300        4.68147        0.37661
H         14.67264        4.07176        0.27458
H         13.18106        9.52092       -0.69452
H         14.63505        8.87845        0.07519
H         12.12881       10.00477        1.50956
H         13.69812       10.77324        1.37816
H         13.09057        8.20470        2.99475
H         13.31656        9.81679        3.63184
H         15.69730        9.83371        2.88503
H         15.51137        8.24886        2.12984
H         15.59148        6.18820        3.48543
H         15.97021        5.60651        6.12497
H         15.92757        7.99280        7.43558
H         15.50721        9.89906        5.53048
