57

C          1.19566        0.62149       -0.83922
C          2.53033        0.58731       -0.13484
O          2.98452        1.53291        0.47389
C          3.37223       -0.72674       -0.24018
C          4.42333       -0.85024        0.86459
C          3.76978       -1.16576        2.20969
N          2.77713       -2.24188        2.02910
C          2.23446       -2.61086        0.86616
N          1.38291       -3.65266        0.81330
C          0.63687       -4.09222       -0.37109
C         -0.48142       -5.05154        0.03724
C         -1.29018       -5.56341       -1.16966
C         -2.41045       -6.48581       -0.74123
C         -3.66348       -5.96688       -0.38365
C         -4.68621       -6.81032        0.05565
C         -4.46785       -8.18803        0.14263
C         -3.22480       -8.71650       -0.21496
C         -2.20382       -7.86989       -0.65366
N          2.53666       -1.93129       -0.25660
C          4.78398       -1.58911        3.29698
C          4.10320       -2.17352        4.51793
C          3.48412       -1.30744        5.43428
C          2.79165       -1.79556        6.54131
C          2.70731       -3.17441        6.74407
C          3.32606       -4.04488        5.84672
C          4.03321       -3.57265        4.72811
C          4.73316       -4.56436        3.82524
H          0.82127        1.64945       -0.86262
H          0.47004       -0.01069       -0.30448
H          1.27089        0.22791       -1.86433
H          3.87498       -0.67639       -1.22020
H          4.97048        0.09596        0.94576
H          5.13746       -1.64228        0.59527
H          3.22905       -0.27350        2.56723
H          2.49344       -2.71916        2.88583
H          1.27270       -4.20617        1.65715
H          1.31568       -4.58563       -1.08934
H          0.19876       -3.20828       -0.86487
H         -1.15853       -4.54323        0.74189
H         -0.04963       -5.91457        0.57139
H         -0.61808       -6.09094       -1.86494
H         -1.70745       -4.70464       -1.71998
H         -3.84505       -4.89186       -0.45979
H         -5.65748       -6.39226        0.32247
H         -5.26706       -8.84850        0.47983
H         -3.05148       -9.79180       -0.16023
H         -1.23808       -8.29168       -0.94271
H          2.18980       -2.29111       -1.13712
H          5.35577       -0.69146        3.57321
H          5.49799       -2.30269        2.86373
H          3.55983       -0.22835        5.28023
H          2.32898       -1.10456        7.24596
H          2.17363       -3.57163        7.60774
H          3.27844       -5.12133        6.02301
H          4.51878       -5.59177        4.14278
H          5.82577       -4.43477        3.85699
H          4.43699       -4.47499        2.76880
