81

F          1.73654       -0.48800        1.81714
C          2.92988       -0.24728        1.13577
C          3.13461       -1.33733        0.08866
C          4.46635       -1.15983       -0.65666
C          4.73616       -2.15329       -1.79904
C          3.81653       -1.93146       -3.00571
C          4.04960       -2.91604       -4.15218
C          3.92241       -4.36255       -3.66056
C          4.85447       -4.58571       -2.47224
N          4.61534       -3.61660       -1.33084
C          5.49802       -3.95161       -0.13771
C          5.17378       -5.29384        0.51013
C          5.97367       -5.47702        1.81039
C          5.80077       -6.86974        2.42739
C          6.64689       -7.07362        3.68888
C          6.56768       -8.49504        4.25645
C          7.47475       -8.71441        5.47206
C          7.44530      -10.14859        6.01035
C          8.38820      -10.37793        7.19730
C          8.36325      -11.81558        7.72266
C          4.24976       -5.42855       -4.72177
C          3.31221       -5.36387       -5.93428
C          3.28725       -6.60010       -6.83939
C          4.31763       -6.68982       -8.03264
C          5.87610       -6.73231       -7.78460
C          6.56411       -7.87976       -6.94565
C          6.43553       -9.40133       -7.35687
C          6.94538       -9.84860       -8.77799
F          8.20069       -9.41704       -8.99153
F          6.93107      -11.19066       -8.82268
F          6.14604       -9.37709       -9.74866
F          7.17793      -10.07635       -6.43893
F          5.14229       -9.78410       -7.23029
F          7.88511       -7.56844       -6.92168
F          6.09666       -7.79732       -5.66388
F          6.46233       -6.71544       -9.00444
F          6.21389       -5.56452       -7.14584
F          3.99169       -7.76914       -8.78205
F          4.12188       -5.56683       -8.78824
F          3.36783       -7.75395       -6.10482
F          2.06794       -6.61825       -7.47206
H          3.74471       -0.23720        1.87815
H          2.85894        0.74921        0.67077
H          2.28104       -1.31103       -0.60521
H          3.09110       -2.30626        0.61726
H          5.30281       -1.16310        0.05740
H          4.49473       -0.16298       -1.12406
H          5.78776       -2.06289       -2.11555
H          3.97843       -0.89935       -3.34698
H          2.76332       -1.98189       -2.68247
H          5.05175       -2.76407       -4.58894
H          3.32620       -2.71386       -4.95335
H          2.88215       -4.52864       -3.31865
H          5.90814       -4.45545       -2.76215
H          4.73452       -5.59475       -2.06233
H          3.63969       -3.74439       -1.02080
H          5.36095       -3.14530        0.59090
H          6.53425       -3.90787       -0.50151
H          5.40827       -6.12796       -0.16786
H          4.09282       -5.35185        0.73024
H          5.67487       -4.70423        2.53874
H          7.04423       -5.30686        1.60296
H          6.07737       -7.63233        1.67851
H          4.73597       -7.04269        2.66022
H          6.33779       -6.34860        4.46163
H          7.70048       -6.83784        3.45685
H          6.84129       -9.21572        3.46575
H          5.52308       -8.72668        4.52825
H          7.18813       -8.01408        6.27605
H          8.51231       -8.45159        5.19941
H          7.70932      -10.84801        5.19722
H          6.41400      -10.40865        6.30758
H          8.12387       -9.68200        8.01143
H          9.41649      -10.11333        6.89723
H          7.35806      -12.09798        8.06932
H          9.05384      -11.94718        8.56669
H          8.65565      -12.53192        6.94039
H          4.16463       -6.42299       -4.26011
H          5.29651       -5.31333       -5.03365
H          3.51537       -4.49066       -6.56863
H          2.27063       -5.27114       -5.58878
