71

C          0.98900        0.91966       -5.25289
C          2.49702        0.81583       -5.01260
C          2.91802       -0.51374       -4.37393
C          4.43416       -0.62374       -4.17326
C          4.85852       -1.96955       -3.61216
O          6.29737       -1.98456       -3.50937
C          6.81594       -3.19845       -3.02613
C          8.34708       -3.11211       -3.03346
C          8.99703       -4.43277       -2.56645
C         10.19254       -4.89941       -3.40489
C         10.90992       -6.10964       -2.79501
O          9.91850       -6.93702       -2.20793
C         10.40605       -8.21024       -1.77187
C          9.29658       -8.94088       -1.04715
O          8.25802       -9.24309       -1.96040
C          7.18709       -9.95120       -1.34868
S          9.48219       -4.14712       -0.79547
C          9.32276       -2.47510       -0.98073
N          8.82919       -2.03760       -2.11571
C          8.66358       -0.62174       -2.46159
C          9.69010        0.29568       -1.78222
O         10.69190       -0.09115       -1.21120
O          9.28557        1.55533       -1.92651
C         10.13307        2.61690       -1.34855
C         11.04363        3.22709       -2.40011
C         11.78635        4.45088       -1.84517
C         12.67732        5.13945       -2.88494
C         13.38842        6.38501       -2.34346
C         14.24991        7.09342       -3.39185
H          0.72347        1.88196       -5.71040
H          0.42527        0.83222       -4.31239
H          0.63610        0.12434       -5.92595
H          2.82864        1.64842       -4.36947
H          3.03233        0.93994       -5.96898
H          2.56974       -1.34663       -5.00910
H          2.40328       -0.63420       -3.40488
H          4.78237        0.17411       -3.49615
H          4.94912       -0.46892       -5.13534
H          4.53442       -2.79511       -4.27326
H          4.41927       -2.14594       -2.61176
H          6.53126       -4.05201       -3.67397
H          6.45248       -3.42279       -2.00146
H          8.68384       -2.84836       -4.04833
H          8.25262       -5.23713       -2.52421
H         10.91297       -4.08009       -3.55147
H          9.78884       -5.16696       -4.39482
H         11.64587       -5.78716       -2.03087
H         11.47023       -6.64599       -3.58185
H         11.26298       -8.07964       -1.08430
H         10.74391       -8.79686       -2.64536
H          8.91572       -8.31528       -0.21352
H          9.71812       -9.86512       -0.60269
H          6.43821      -10.13357       -2.12822
H          6.72562       -9.36375       -0.53319
H          7.52299      -10.92047       -0.93792
H          9.63257       -1.78419       -0.19856
H          7.64314       -0.29303       -2.22465
H          8.76781       -0.52715       -3.55193
H         10.69481        2.18724       -0.50931
H          9.40385        3.34563       -0.97210
H         10.43695        3.52292       -3.27100
H         11.76556        2.47046       -2.74700
H         12.39851        4.15069       -0.97751
H         11.05045        5.17899       -1.46175
H         12.06410        5.42158       -3.75882
H         13.42792        4.42190       -3.25979
H         14.01425        6.09981       -1.48100
H         12.63489        7.08815       -1.94993
H         15.03455        6.42886       -3.78253
H         14.74457        7.97886       -2.97078
H         13.64372        7.42797       -4.24683
