71

C         10.00025       -9.67333        2.51640
C          9.27810       -9.32890        1.21130
C          9.65321       -7.95043        0.65577
C          8.91606       -7.58503       -0.63640
C          9.35733       -6.24703       -1.23737
C          8.63027       -5.88511       -2.53637
C          9.13640       -4.58876       -3.17646
C          8.46272       -4.26579       -4.51510
C          8.93702       -2.96047       -5.17666
C         10.44826       -2.86350       -5.44288
C         10.99906       -3.97482       -6.34314
C         12.51161       -3.85358       -6.57449
C         13.09176       -4.89368       -7.51796
N         12.63564       -4.77269       -9.01000
C         13.78579       -5.35130       -9.85520
C         14.81588       -5.87618       -8.85955
C         14.61489       -4.98557       -7.61842
C         15.19081       -5.62687       -6.35569
O         14.61282       -6.49736       -5.73377
O         16.39570       -5.11494       -6.07227
C         17.07944       -5.64592       -4.88127
C         16.74582       -4.80943       -3.66053
C         12.16999       -3.41208       -9.48613
C         11.07661       -3.56567      -10.55642
C         10.64621       -2.20179      -11.09695
O         11.77096       -1.70566      -11.83022
O         11.49455       -4.42463      -11.60993
H          9.72273      -10.67233        2.87932
H          9.75592       -8.95207        3.31040
H         11.09263       -9.66009        2.38416
H          8.18745       -9.37244        1.37036
H          9.50207      -10.09686        0.45124
H         10.74276       -7.91718        0.47626
H          9.45186       -7.18077        1.42169
H          7.82949       -7.56092       -0.44387
H          9.07155       -8.38452       -1.38253
H         10.44495       -6.27939       -1.42872
H          9.20672       -5.44251       -0.49648
H          7.54667       -5.80302       -2.34411
H          8.74540       -6.71343       -3.25845
H         10.22940       -4.67281       -3.31169
H          8.98694       -3.74631       -2.47858
H          7.37349       -4.19708       -4.36442
H          8.60465       -5.11520       -5.20640
H          8.64871       -2.10852       -4.54055
H          8.39383       -2.82261       -6.12729
H         10.99943       -2.87235       -4.48855
H         10.66666       -1.88516       -5.90362
H         10.44329       -3.96277       -7.29953
H         10.79693       -4.96205       -5.89767
H         13.02240       -4.01431       -5.61160
H         12.79968       -2.83531       -6.88363
H         12.73196       -5.88917       -7.21152
H         11.83140       -5.40120       -9.11850
H         14.17816       -4.52472      -10.45561
H         13.37180       -6.10154      -10.53532
H         15.83000       -5.81566       -9.27102
H         14.61765       -6.92505       -8.59580
H         15.07231       -3.99553       -7.76676
H         18.14167       -5.58442       -5.14505
H         16.78699       -6.69569       -4.75647
H         17.00356       -3.75434       -3.82029
H         17.32606       -5.17384       -2.80177
H         15.68147       -4.88572       -3.40270
H         13.04287       -2.87000       -9.86725
H         11.76410       -2.86906       -8.62794
H         10.19743       -4.04649      -10.09050
H         10.36431       -1.52340      -10.27204
H          9.77060       -2.34578      -11.75004
H         11.48572       -0.98612      -12.41329
H         11.93933       -3.85516      -12.26712
