81

O          7.08809       -0.12943        4.99603
C          6.29061       -1.23807        4.52978
C          6.24709       -1.14143        3.02084
O          5.66240        0.12483        2.70037
C          6.05790        0.66883        1.44670
C          5.68411        2.14553        1.41242
C          6.26557        2.99768        2.48422
N          6.74694        2.51534        3.59033
C          7.31013        3.51253        4.50602
C          6.83380        4.85540        3.90951
C          6.42390        4.49671        2.43434
C          7.41485        4.89608        1.30075
C          6.72810        5.11473       -0.05120
C          7.67404        5.25432       -1.25230
S          9.08028        4.10219       -1.36712
C          8.38052        2.55232       -1.91928
S          6.72787        2.29530       -2.05122
N          9.31781        1.62297       -2.22853
C          8.90866        0.27304       -2.66348
C          8.67726       -0.70835       -1.51152
C         10.76566        1.90240       -2.19060
C         11.44457        1.59625       -0.85125
C          7.84798        5.98716        4.09272
C          8.08150        6.35648        5.56582
C          9.31405        7.24872        5.81602
C          9.21909        8.60851        5.09716
C         10.52297        9.43110        5.12432
C         10.42921       10.69708        4.32203
C         10.42623       11.96339        4.77834
C         10.52059       12.34822        6.23167
C         10.33202       13.12554        3.82394
C          9.53759        7.40785        7.32674
H          7.20650       -0.21483        5.95414
H          5.27039       -1.17936        4.94416
H          6.73962       -2.20091        4.82273
H          5.65466       -1.97041        2.59574
H          7.27195       -1.19525        2.61070
H          5.56645        0.15272        0.60381
H          7.15077        0.55734        1.30879
H          4.58763        2.28001        1.44899
H          5.98827        2.53671        0.42281
H          6.71073        1.50543        3.82916
H          8.40770        3.40861        4.51194
H          6.94663        3.31793        5.52245
H          5.90545        5.13727        4.43186
H          5.44919        4.95354        2.19821
H          8.20645        4.13586        1.20107
H          7.92519        5.81932        1.60712
H          6.12109        6.03416       -0.00517
H          6.03083        4.30035       -0.28080
H          8.19829        6.22257       -1.23663
H          7.10807        5.18794       -2.19070
H          9.70210       -0.09403       -3.32861
H          7.98837        0.38285       -3.25127
H          9.57990       -0.85389       -0.90446
H          8.38072       -1.68511       -1.91702
H          7.86617       -0.35312       -0.86375
H         10.91641        2.95648       -2.46385
H         11.22180        1.30343       -2.99095
H         10.98169        2.15956       -0.03017
H         12.50220        1.88812       -0.90512
H         11.40351        0.52719       -0.60847
H          7.50002        6.87315        3.54072
H          8.81071        5.69438        3.63870
H          8.21406        5.43756        6.16265
H          7.17822        6.84784        5.96858
H         10.18919        6.71352        5.39843
H          8.40520        9.20513        5.54510
H          8.93779        8.45693        4.04192
H         11.33667        8.80394        4.71640
H         10.80440        9.65322        6.16265
H         10.34674       10.55702        3.23725
H         10.55562       11.48952        6.91195
H          9.65880       12.97105        6.52067
H         11.41781       12.96138        6.41430
H         10.27637       12.79375        2.77940
H         11.20439       13.79128        3.92654
H          9.44495       13.74399        4.03751
H          8.70865        7.96540        7.78995
H         10.46589        7.94855        7.55006
H          9.60149        6.42982        7.82535
