74

C          1.67236        0.20030        2.39743
C          2.21354        1.25036        1.44831
O          3.66983        1.11756        1.29865
P          4.25716        0.34522        0.02810
O          3.69560       -0.98852       -0.29243
O          4.19623        1.40421       -1.18307
C          3.49916        1.09063       -2.43233
C          4.49037        1.00080       -3.57563
C          6.02670        0.32519        0.49134
C          6.85390       -0.31182       -0.62920
C          8.34757       -0.58534       -0.36811
C          8.88203       -1.42578       -1.53905
C         10.35306       -1.83149       -1.44428
C         10.88866       -2.67031       -2.61390
C         10.91231       -4.23780       -2.43933
C          9.58016       -5.05788       -2.22308
C          8.42452       -5.10150       -3.30365
C          8.67268       -5.60216       -4.78356
C          9.21144       -7.05652       -5.09149
C          8.41903       -8.34730       -4.63179
C          6.93100       -8.54051       -5.10858
F          6.81976       -8.35036       -6.43342
F          6.55424       -9.79535       -4.81389
F          6.10696       -7.68821       -4.47142
F          9.13247       -9.39169       -5.12304
F          8.43424       -8.41359       -3.27582
F          9.33004       -7.10917       -6.44165
F         10.45284       -7.16425       -4.54956
F          7.47844       -5.46314       -5.41614
F          9.55560       -4.74502       -5.35800
F          7.44585       -5.85931       -2.75472
F          7.94152       -3.82875       -3.43089
F          9.95206       -6.32893       -1.95707
F          8.98694       -4.55002       -1.09303
F         11.57788       -4.76783       -3.48814
F         11.64558       -4.47219       -1.30435
F         10.25810       -2.35824       -3.78491
F         12.21598       -2.34427       -2.78068
O          8.55247       -1.37863        0.85279
C          8.87889       -0.54442        1.90046
N          9.80890        0.50523        1.27529
C          9.16178        0.71627       -0.07865
C         11.26816        0.12710        1.28185
C         11.95227        0.79597        2.46782
O         11.29690        1.99864        2.91555
C         11.39950        0.87021        3.82812
H          0.59305        0.35414        2.53761
H          2.15700        0.27356        3.38004
H          1.82820       -0.80905        1.99626
H          2.06397        2.26918        1.82795
H          1.73918        1.18061        0.45771
H          2.78382        1.91049       -2.58324
H          2.94743        0.15021       -2.30025
H          5.08527        1.92090       -3.65766
H          3.95099        0.86068       -4.52273
H          5.16695        0.14410       -3.44812
H          6.06041       -0.27796        1.41031
H          6.32623        1.35666        0.73367
H          6.79401        0.31651       -1.53315
H          6.39252       -1.27446       -0.89571
H          8.70613       -0.86318       -2.46724
H          8.24347       -2.31403       -1.59377
H         10.55029       -2.38075       -0.51477
H         11.00380       -0.94418       -1.45290
H          9.40631       -1.11156        2.67703
H          8.03241        0.01995        2.32858
H          9.79506        1.38937        1.83264
H          9.93694        0.92312       -0.82240
H          8.50862        1.59252        0.00642
H         11.71510        0.50428        0.35376
H         11.36657       -0.96514        1.29543
H         13.03701        0.87955        2.34873
H         10.45010        0.39426        4.08933
H         12.08266        1.02766        4.66541
