66

C         10.30001        8.15685       -1.60732
C         10.70466        6.80249       -1.02276
C          9.52844        6.04534       -0.39515
C          9.92629        4.65613        0.12199
C          8.75502        3.95282        0.78735
O          9.08259        2.54651        1.10384
C          9.71593        2.31704        2.25347
O         10.04307        3.12767        3.09265
C          9.96914        0.79986        2.37151
N         10.79739        0.47991        3.52783
C         11.90827        1.17821        3.97157
N         12.32600        0.74118        5.13083
N         11.46943       -0.27534        5.43098
C         10.53080       -0.46113        4.48950
N          9.51535       -1.36809        4.51210
C          8.95062       -1.70415        5.83470
C          9.68743       -2.66210        6.75820
O         11.03836       -2.30954        7.16284
C         10.81482       -3.53256        6.40196
C          9.45540       -2.36874        3.40171
C          8.14737       -3.15094        3.34204
C          8.20312       -4.14026        2.16657
S          7.09664       -5.56164        2.35085
C          8.05133       -6.62061        3.44905
S          9.52866       -6.15982        4.09851
N          7.46168       -7.80976        3.68850
C          6.18704       -8.22584        3.07801
C          4.96780       -7.90358        3.94380
C          8.09465       -8.79989        4.57992
C          9.05237       -9.72931        3.83547
H         11.16773        8.68667       -2.02199
H          9.84812        8.80494       -0.84222
H          9.56541        8.03661       -2.41700
H         11.48678        6.94664       -0.25871
H         11.15744        6.17941       -1.81198
H          8.72105        5.94090       -1.14000
H          9.11039        6.64532        0.43100
H         10.75365        4.75013        0.84244
H         10.28717        4.03902       -0.71663
H          7.89530        3.86344        0.11230
H          8.44829        4.44932        1.71732
H         10.42995        0.42933        1.44507
H          9.00029        0.29823        2.49611
H         12.35932        1.99612        3.42282
H         11.56952       -0.90296        6.26023
H          7.94728       -2.11558        5.66214
H          8.80218       -0.75541        6.37387
H          9.06399       -2.97035        7.60572
H         10.97934       -4.45147        6.96772
H         11.22070       -3.52589        5.38893
H         10.27982       -3.09369        3.50639
H          9.61804       -1.82852        2.45828
H          7.27937       -2.48106        3.24593
H          8.03444       -3.73829        4.26265
H          9.21751       -4.54959        2.05120
H          7.89564       -3.67239        1.21999
H          6.25995       -9.30894        2.90342
H          6.10102       -7.75849        2.08668
H          5.03628       -8.38716        4.92746
H          4.05752       -8.27037        3.45124
H          4.86265       -6.82176        4.09457
H          7.27926       -9.37011        5.04811
H          8.62678       -8.24855        5.36521
H          8.54102      -10.27946        3.03361
H          9.47004      -10.46622        4.53475
H          9.88162       -9.15883        3.39915
