41

C          3.19467       -5.46988       -3.94006
C          3.12383       -4.58324       -2.69454
C          4.14810       -4.98649       -1.62162
C          4.04593       -4.08633       -0.40279
O          4.95642       -4.53235        0.67737
C          6.18123       -4.02604        0.68552
O          6.67876       -3.25054       -0.10590
C          6.94003       -4.52560        1.94014
N          8.37374       -4.31000        1.78283
C          8.88704       -3.10884        1.63040
S         10.51223       -3.00962        1.19691
C         10.72179       -4.88724        1.37525
C          9.26352       -5.39895        1.33155
C         11.38418       -5.11065        2.75663
C         11.74361       -6.56967        3.06596
C         11.52441       -5.42686        0.18173
C         12.96557       -4.92835        0.08905
F         13.52234       -5.42300       -1.08629
H          2.44664       -5.16464       -4.68299
H          3.00588       -6.52449       -3.69260
H          4.18269       -5.41025       -4.41896
H          2.10936       -4.62892       -2.26561
H          3.28899       -3.53111       -2.97962
H          5.16562       -4.92600       -2.03997
H          3.98010       -6.03190       -1.31651
H          3.05693       -4.14074        0.06758
H          4.28936       -3.04202       -0.63775
H          6.74655       -5.58830        2.12121
H          6.57019       -3.96657        2.81202
H          8.28594       -2.21385        1.79066
H          9.13473       -6.27035        1.98698
H          8.96107       -5.67891        0.30848
H         10.70849       -4.72089        3.53439
H         12.29113       -4.49027        2.81633
H         10.87600       -7.24244        3.01270
H         12.13855       -6.63594        4.08721
H         12.51475       -6.96332        2.39152
H         11.00942       -5.16674       -0.75502
H         11.53495       -6.52716        0.24241
H         13.59053       -5.27406        0.92647
H         13.01639       -3.82583        0.04337
