77

C          0.94797        0.05891        0.86244
C          2.47459       -0.03344        0.92795
C          3.04324       -1.19773        0.10841
C          4.57311       -1.28692        0.15600
C          5.13074       -2.42927       -0.70648
C          6.64486       -2.45632       -0.67494
O          7.10302       -3.55747       -1.55496
C          8.36150       -3.53617       -1.94925
O          9.19068       -2.69181       -1.59236
C          8.67998       -4.64141       -2.95145
C         10.16254       -5.04649       -3.00809
C         10.63083       -5.81003       -1.76460
O         12.02205       -6.04100       -1.80737
C         12.75812       -4.83198       -1.68533
C         12.51749       -3.85373       -2.87102
N         11.00461       -3.78529       -3.15263
C         13.33014       -3.98538       -4.14023
C         14.14460       -2.89538       -4.48555
C         14.98730       -2.92366       -5.59560
C         15.02224       -4.07064       -6.38801
C         14.21856       -5.16957       -6.08126
C         13.36670       -5.13553       -4.96892
O         12.54143       -6.16127       -4.62344
C         12.73968       -7.44606       -5.23378
C         14.23819       -5.16466       -1.51135
C         14.48116       -6.24910       -0.45565
O         14.51973       -7.52923       -1.14375
C         13.75103       -8.54078       -0.65540
O         12.97804       -8.44619        0.27369
C         14.00550       -9.81086       -1.44179
S         12.60755      -10.20865       -2.55274
C         15.82044       -6.08241        0.25938
O         15.90867       -7.07796        1.29030
C         16.79931       -8.09988        1.10305
O         17.55599       -8.18721        0.15998
C         16.70025       -9.09814        2.23414
S         17.50968       -8.49487        3.76153
H          0.57288        0.90720        1.45032
H          0.47395       -0.85244        1.25572
H          0.59933        0.19279       -0.17231
H          2.79460       -0.13629        1.97845
H          2.91655        0.91124        0.56831
H          2.71759       -1.09643       -0.94162
H          2.60963       -2.14641        0.46970
H          4.90141       -1.41603        1.20159
H          5.00253       -0.32803       -0.18263
H          4.79467       -2.30640       -1.74846
H          4.73648       -3.39561       -0.35485
H          7.04462       -2.66083        0.32877
H          7.09210       -1.52386       -1.04482
H          8.33727       -4.28633       -3.93815
H          8.06715       -5.52503       -2.72797
H         10.36442       -5.66373       -3.89039
H         10.14370       -6.79403       -1.74594
H         10.35327       -5.26840       -0.83751
H         12.39996       -4.30900       -0.77197
H         12.74130       -2.85006       -2.48063
H         10.89588       -3.41379       -4.10421
H         10.52716       -3.10474       -2.48731
H         14.12647       -2.00684       -3.84978
H         15.61219       -2.06380       -5.83251
H         15.67808       -4.11780       -7.25776
H         14.25436       -6.05463       -6.71374
H         12.44421       -7.43794       -6.29397
H         12.10588       -8.13680       -4.66919
H         13.78781       -7.76501       -5.13750
H         14.76824       -4.24024       -1.23467
H         14.66981       -5.50293       -2.46346
H         13.67199       -6.29313        0.28813
H         14.16603      -10.64170       -0.74434
H         14.88409       -9.70447       -2.08772
H         11.69649      -10.40763       -1.57144
H         15.86257       -5.10335        0.75824
H         16.66493       -6.18927       -0.43690
H         17.14413      -10.04625        1.91389
H         15.64964       -9.25158        2.51191
H         18.77393       -8.53827        3.27730
