70

C          2.05483       -2.09869       -1.42043
C          3.46322       -1.54608       -1.65470
C          4.27366       -1.39565       -0.36218
C          5.67810       -0.82202       -0.58462
C          6.49100       -0.71826        0.71441
C          7.85126       -0.08486        0.47323
O          8.58269        0.05820        1.74945
C          9.51153       -0.83763        2.04578
O          9.86208       -1.76316        1.31268
C         10.06877       -0.58446        3.43930
C         11.36050       -1.27530        3.79587
N         11.82394       -2.22229        2.94759
C         12.95834       -2.92550        3.12290
C         13.75312       -2.69255        4.24193
C         13.29295       -1.72521        5.14612
C         12.10611       -1.00695        4.95537
C         11.64683       -0.02172        5.99641
C         10.47651       -0.56265        6.83419
O          9.67517       -1.38572        6.43079
O         10.46029        0.01824        8.03603
C          9.34619       -0.34796        8.92405
C          9.50624        0.44086       10.20801
C          8.36334        0.16710       11.19464
C          8.50456        0.95593       12.50218
C          7.35366        0.70761       13.47997
C         15.00739       -3.48974        4.48198
C         14.70289       -4.89737        5.01382
O         13.94268       -5.57571        4.03188
C         13.56752       -6.90644        4.42235
C         12.73232       -7.51524        3.31384
H          1.49972       -2.19098       -2.36366
H          1.47345       -1.44132       -0.75725
H          2.08675       -3.09468       -0.95454
H          3.39598       -0.56685       -2.15771
H          4.00829       -2.20642       -2.34986
H          4.35421       -2.37884        0.13367
H          3.72330       -0.74631        0.34076
H          5.59391        0.17640       -1.04766
H          6.22179       -1.45112       -1.30990
H          6.62835       -1.72204        1.14834
H          5.94072       -0.11792        1.45598
H          7.76516        0.94610        0.10799
H          8.47090       -0.67144       -0.21606
H          9.30194       -0.90789        4.16625
H         10.16336        0.50091        3.58696
H         11.20293       -2.35367        2.10510
H         13.19894       -3.66494        2.36197
H         13.88364       -1.52182        6.04293
H         11.29983        0.91913        5.53796
H         12.47282        0.25039        6.66417
H          9.38568       -1.43473        9.08744
H          8.40651       -0.11511        8.40193
H          9.54154        1.51565        9.96763
H         10.47294        0.18777       10.67209
H          8.31830       -0.91220       11.42244
H          7.39872        0.41839       10.72032
H          8.56690        2.03240       12.26914
H          9.46261        0.69360       12.98166
H          6.38667        0.99476       13.04096
H          7.48334        1.28647       14.40392
H          7.28796       -0.35436       13.76005
H         15.65034       -2.96707        5.20335
H         15.57534       -3.58752        3.54519
H         14.14383       -4.83628        5.96956
H         15.65521       -5.42340        5.21514
H         13.00012       -6.86261        5.37132
H         14.48047       -7.50311        4.60584
H         11.81454       -6.93486        3.14719
H         12.44181       -8.53985        3.58115
H         13.29792       -7.55613        2.37348
