57

C          0.70816        0.31978       -3.58514
C          2.04354       -0.07390       -2.94746
C          2.47213        0.88787       -1.82976
C          3.77092        0.49993       -1.11846
N          4.89645        0.52361       -2.06807
C          6.11999        1.00641       -1.83593
N          6.68818        0.93368       -0.62021
C          6.54514       -0.16851        0.36097
C          6.79483       -1.56771       -0.22316
C          8.09571       -1.74780       -1.03134
C          9.37317       -1.19749       -0.37889
C          9.68972       -1.78822        1.00176
C         10.64843       -0.89914        1.79988
O         10.50191       -1.09417        3.22680
C          9.41863       -0.48705        3.78749
O          8.61300        0.17921        3.14982
C          9.37452       -0.75767        5.24213
C          8.38564       -0.28161        6.00700
N          6.83527        1.55418       -2.85330
C          6.28768        2.26057       -4.00786
C          5.96164        3.72878       -3.69461
C          5.44394        4.44680       -4.95882
F          4.37141        3.82038       -5.49595
F          5.07373        5.71374       -4.65292
F          6.41387        4.50597       -5.90256
O          4.99032        3.73747       -2.66549
H          0.42410       -0.38430       -4.37757
H          0.75753        1.32357       -4.03116
H         -0.09900        0.32579       -2.83886
H          2.80862       -0.11469       -3.74618
H          1.97929       -1.09790       -2.54326
H          1.68345        0.92309       -1.06214
H          2.57009        1.91318       -2.22308
H          3.68119       -0.50496       -0.67317
H          3.99616        1.21383       -0.31528
H          4.63915        0.39681       -3.04235
H          7.48822        1.54213       -0.47930
H          5.55063       -0.12758        0.82550
H          7.26396        0.06349        1.15892
H          5.94620       -1.86965       -0.85613
H          6.77646       -2.25644        0.63512
H          7.97902       -1.28037       -2.02330
H          8.21741       -2.82305       -1.23468
H          9.28987       -0.10047       -0.27217
H         10.21924       -1.35763       -1.06471
H         10.09813       -2.80449        0.90436
H          8.76449       -1.87879        1.58619
H         10.46032        0.16183        1.57734
H         11.70144       -1.12723        1.59667
H         10.18514       -1.36262        5.64963
H          7.58845        0.32254        5.57184
H          8.35012       -0.47906        7.07773
H          7.83823        1.61470       -2.70972
H          5.37774        1.76301       -4.36762
H          7.02223        2.20324       -4.82028
H          6.88330        4.26239       -3.39423
H          4.80579        4.65802       -2.41338
