64

C          1.58510       -1.35295       -1.98452
C          2.60494       -0.44447       -2.67633
C          3.47489        0.33147       -1.67722
C          4.50471        1.19945       -2.37327
O          5.26689        1.90110       -1.32618
C          6.35606        2.56210       -1.69844
O          6.77572        2.62143       -2.85219
C          6.98986        3.25705       -0.49812
C          8.43055        3.62914       -0.69111
N          8.96855        3.69121       -1.96139
C         10.25745        4.02499       -1.90442
N         10.58096        4.19356       -0.61140
C          9.45179        3.95865        0.18349
C          9.50213        4.09390        1.67900
C          8.18682        3.76262        2.35085
C          7.22633        4.75835        2.56123
C          5.98480        4.42126        3.10572
C          5.69893        3.09747        3.44222
C          6.65414        2.08448        3.25770
C          7.89723        2.44134        2.71432
C          6.34659        0.65202        3.60983
C         11.90498        4.57285       -0.08716
C         13.05859        4.31083       -1.04916
C         14.36128        4.18423       -0.22385
O         14.32799        3.73760        0.91940
N         15.48611        4.55899       -0.89777
C         16.84609        4.47758       -0.50061
C         17.79785        4.94774       -1.41994
C         19.15478        4.89447       -1.11203
C         19.57561        4.37351        0.11478
C         18.62502        3.90887        1.02571
C         17.26009        3.95486        0.73415
H          0.98050       -1.89916       -2.71966
H          0.89657       -0.77376       -1.35218
H          2.08156       -2.09582       -1.34332
H          2.07979        0.26706       -3.33454
H          3.25090       -1.04945       -3.33397
H          3.99256       -0.37276       -1.00582
H          2.83685        0.96610       -1.04130
H          4.04650        1.96183       -3.02071
H          5.21326        0.61486       -2.97661
H          6.86485        2.62653        0.38977
H          6.38522        4.15787       -0.29540
H          8.37285        3.39957       -2.76159
H         10.92139        4.13643       -2.75178
H          9.80165        5.12454        1.93450
H         10.29767        3.43944        2.07296
H          7.44651        5.79605        2.30174
H          5.23859        5.19801        3.27610
H          4.72692        2.84710        3.87082
H          8.65541        1.66716        2.56675
H          5.66769        0.58673        4.46964
H          7.25806        0.08897        3.84708
H          5.85325        0.14068        2.76805
H         12.09413        3.98127        0.81929
H         11.86607        5.63151        0.20947
H         13.14011        5.08469       -1.82644
H         12.91963        3.33884       -1.55181
H         15.34747        4.93047       -1.83324
H         17.47366        5.35452       -2.38133
H         19.88444        5.26034       -1.83475
H         20.63731        4.32779        0.35660
H         18.94375        3.50194        1.98572
H         16.52406        3.59461        1.44697
