72

C          2.07908        1.20793        0.75635
C          2.41592        1.55174       -0.69583
N          2.63042        0.36832       -1.54244
C          1.66804       -0.32513       -2.20092
O          1.91279       -1.35582       -2.84555
C          0.19838        0.16399       -2.12561
C         -0.44082        0.26496       -3.48946
C         -0.61350        1.49940       -4.12357
C         -0.12381        2.77251       -3.45883
C         -0.33301        4.05910       -4.26121
C          0.16873        5.32149       -3.63797
C          0.75394        5.56191       -2.45854
F          1.02136        4.62969       -1.53465
F          1.14398        6.75925       -2.05540
F         -0.02157        6.40321       -4.43972
C         -1.23907        1.54290       -5.39827
C         -1.66086        0.41253       -6.06462
C         -1.46320       -0.85613       -5.48268
C         -0.85431       -0.92156       -4.17844
C         -0.64597       -2.20116       -3.64396
N         -0.99922       -3.29380       -4.33428
C         -1.57943       -3.28980       -5.58330
C         -1.81841       -2.05870       -6.14617
C         -1.89662       -4.61351       -6.23338
C         -1.61717       -5.87003       -5.39968
C         -2.00068       -7.15889       -6.14001
C         -1.70364       -8.42694       -5.33259
C         -2.10498       -9.70933       -6.07019
C         -1.77272      -10.95828       -5.26825
O         -2.20650      -12.09795       -6.04230
C         -1.93170      -13.31789       -5.48290
O         -1.36370      -13.44778       -4.41533
C         -2.42346      -14.40612       -6.36270
C         -2.27255      -15.68994       -6.01912
C          4.01046       -0.15576       -1.60143
C          4.81764        0.45443       -2.74774
H          1.99038        2.12656        1.35148
H          2.86090        0.58526        1.21152
H          1.12830        0.66182        0.82915
H          3.34141        2.14295       -0.74186
H          1.64151        2.19075       -1.13432
H          0.09870        1.11101       -1.59106
H         -0.32989       -0.58018       -1.50999
H          0.94941        2.65343       -3.24260
H         -0.62009        2.87225       -2.48017
H         -1.40697        4.21130       -4.46909
H          0.16098        3.97892       -5.24564
H         -1.39058        2.50830       -5.87935
H         -2.13068        0.49083       -7.04544
H         -0.16301       -2.37782       -2.68808
H         -0.81482       -4.20601       -3.91549
H         -2.27820       -2.01056       -7.13382
H         -1.33169       -4.66768       -7.17889
H         -2.95869       -4.59487       -6.52763
H         -2.18120       -5.83178       -4.44996
H         -0.54374       -5.92606       -5.14069
H         -1.46113       -7.19939       -7.10118
H         -3.07397       -7.12444       -6.39244
H         -2.23222       -8.37773       -4.36481
H         -0.62692       -8.46153       -5.09165
H         -1.59090       -9.76087       -7.04339
H         -3.18555       -9.69688       -6.28542
H         -2.28556      -10.96988       -4.29306
H         -0.69275      -11.04659       -5.07087
H         -2.90935      -14.10648       -7.29215
H         -1.78262      -15.95782       -5.08162
H         -2.63067      -16.49577       -6.65878
H          3.94673       -1.24426       -1.71501
H          4.48264        0.05781       -0.63211
H          4.36527        0.20496       -3.71634
H          5.84202        0.05900       -2.73784
H          4.88182        1.54852       -2.66258
