100

C          1.89029        1.84633        3.71285
C          3.35974        1.71528        3.30507
C          3.76043        2.65143        2.15908
C          5.22995        2.51996        1.74794
C          5.64250        3.45005        0.60204
C          7.11315        3.29588        0.20240
C          7.55563        4.21842       -0.93829
C          9.02944        4.03237       -1.31287
C          9.51823        4.95983       -2.43007
C         10.99992        4.74546       -2.76007
C         11.53708        5.70411       -3.83167
C         13.01209        5.46550       -4.08847
O         13.48463        6.45094       -5.05610
C         14.84159        6.34975       -5.30488
S         15.14314        7.48279       -6.73375
C         14.55818        9.06775       -6.03842
C         14.61139       10.24182       -7.04537
C         13.64353       10.07279       -8.23466
N         13.66463       11.12023       -9.23527
O         14.36591       11.43119       -6.30509
C         16.96811        7.66810       -6.69276
C         17.69872        6.35444       -6.97943
C         17.36201        5.69535       -8.32259
C         18.14520        4.39742       -8.55035
C         17.87143        3.74543       -9.90980
C         18.61311        2.41712      -10.09766
C         18.37939        1.76734      -11.46533
C         19.10824        0.42945      -11.63340
C         18.89717       -0.21801      -13.00587
C         19.63188       -1.55340      -13.16998
C         19.43107       -2.19213      -14.54722
C         20.18172       -3.52349      -14.69579
N         20.00248       -4.14572      -15.99918
C         20.75942       -3.88145      -17.12062
C         20.21495       -4.57755      -18.18478
C         19.08220       -5.28362      -17.69234
C         18.97265       -4.99491      -16.34389
H          1.63718        1.16227        4.53446
H          1.22001        1.61610        2.87124
H          1.65807        2.86811        4.04843
H          3.56907        0.67290        3.01023
H          4.00418        1.91557        4.17793
H          3.55386        3.69588        2.45288
H          3.11620        2.45239        1.28434
H          5.43370        1.47419        1.45710
H          5.87206        2.71763        2.62451
H          5.44866        4.49769        0.89227
H          5.00151        3.25660       -0.27600
H          7.30197        2.24687       -0.08646
H          7.75000        3.48258        1.08514
H          7.37942        5.26967       -0.65020
H          6.92408        4.03740       -1.82556
H          9.19778        2.98302       -1.61232
H          9.65263        4.19198       -0.41527
H          9.35737        6.01072       -2.13291
H          8.91082        4.80278       -3.33797
H         11.15155        3.70275       -3.08793
H         11.59327        4.86383       -1.83684
H         11.39552        6.74736       -3.50655
H         10.97860        5.58039       -4.77292
H         13.19633        4.45638       -4.49821
H         13.60029        5.57846       -3.16021
H         15.16094        5.34996       -5.65630
H         15.48557        6.68094       -4.46579
H         15.16001        9.29376       -5.14713
H         13.52395        8.84773       -5.73189
H         15.63999       10.36469       -7.42444
H         12.61729        9.99306       -7.82744
H         13.84083        9.11021       -8.73611
H         13.53107       12.04357       -8.82284
H         14.54099       11.13885       -9.75626
H         13.41243       11.50077       -6.12124
H         17.22725        8.09986       -5.71554
H         17.16685        8.41709       -7.47383
H         17.54044        5.64541       -6.15098
H         18.77259        6.60138       -6.94760
H         17.56958        6.40648       -9.14065
H         16.28028        5.47605       -8.38151
H         17.90192        3.68215       -7.74508
H         19.22500        4.60395       -8.45459
H         18.15859        4.44459      -10.71417
H         16.78615        3.57805      -10.02653
H         18.30629        1.71510       -9.30247
H         19.69522        2.58137       -9.95320
H         18.70306        2.46233      -12.25972
H         17.29656        1.61582      -11.61947
H         18.77502       -0.26814      -10.84488
H         20.18890        0.58050      -11.46439
H         19.23014        0.47968      -13.79384
H         17.81744       -0.37233      -13.17645
H         19.29345       -2.25352      -12.38571
H         20.71042       -1.39832      -12.98995
H         19.77190       -1.50284      -15.33670
H         18.35855       -2.36705      -14.73107
H         19.84537       -4.23834      -13.92906
H         21.26053       -3.37199      -14.53654
H         21.62543       -3.22958      -17.06283
H         20.60079       -4.58910      -19.19907
H         18.42909       -5.94299      -18.25490
H         18.25790       -5.32905      -15.59841
