23

F          2.30056       -2.83684       -0.90038
C          2.13122       -1.62830       -0.16277
C          3.06376       -0.58656       -0.74678
C          4.55384       -0.98175       -0.70551
P          4.99669       -2.53121       -1.56477
C          4.36476       -2.64302       -3.27142
C          4.68806       -3.95879       -4.00529
C          3.89885       -5.14522       -3.47068
Br         4.50928       -6.83379       -4.22142
Br         4.27688       -3.63291       -5.90168
Br         7.15827       -2.68141       -1.58669
H          2.35536       -1.86737        0.88717
H          1.07743       -1.33751       -0.25906
H          2.95716        0.34324       -0.16665
H          2.75877       -0.34498       -1.77545
H          4.91933       -1.11544        0.32563
H          5.17977       -0.20606       -1.17240
H          4.58535       -3.64288       -0.80103
H          4.80721       -1.78576       -3.80160
H          3.27736       -2.48302       -3.20255
H          5.76556       -4.16513       -3.99312
H          2.82913       -5.05732       -3.69210
H          4.03305       -5.25204       -2.38477
