60

Br         4.04144        2.45983        1.70654
C          4.03765        0.65145        0.94797
C          4.59566        0.64723       -0.46772
C          4.61522       -0.77542       -1.05123
C          5.05556       -0.87231       -2.53246
C          4.48976       -2.12909       -3.22066
C          5.42627       -3.23948       -2.76042
N          6.80664       -2.56899       -2.71493
C          6.57299       -1.02763       -2.79506
C          7.54078       -0.25606       -1.90119
C          9.03107       -0.27138       -2.29049
C          9.36125        0.21841       -3.70758
C          8.88539        1.64008       -4.03398
C          9.46802        2.17390       -5.35076
N         10.93298        2.21505       -5.29541
C          7.73200       -3.12223       -3.78209
O          7.08740       -2.92810       -4.98715
C          7.94542       -2.84240       -6.15773
C          7.18598       -2.11075       -7.24982
C          6.82367       -0.66591       -6.88686
C          6.19839        0.13049       -8.03603
C          5.83094        1.56057       -7.63236
H          2.99496        0.31542        0.98717
H          4.63779        0.04385        1.63584
H          5.60076        1.09022       -0.45490
H          3.97628        1.29579       -1.10684
H          3.59518       -1.18636       -0.98306
H          5.23461       -1.42541       -0.40774
H          4.71557        0.03103       -3.06090
H          4.53336       -2.03297       -4.31381
H          3.45135       -2.33737       -2.93671
H          5.47645       -4.09989       -3.43400
H          5.19941       -3.58424       -1.74448
H          7.24749       -2.77337       -1.80965
H          6.75667       -0.79636       -3.85255
H          7.42855       -0.58628       -0.85452
H          7.18888        0.78587       -1.91645
H          9.46121       -1.27700       -2.13661
H          9.55633        0.36581       -1.56217
H          8.94812       -0.46972       -4.46609
H         10.45146        0.18572       -3.84597
H          9.17279        2.32141       -3.21339
H          7.78567        1.69168       -4.10108
H          8.99390        3.14811       -5.57785
H          9.18825        1.49552       -6.17361
H         11.25086        2.98467       -4.70386
H         11.32736        2.38083       -6.22081
H          7.88750       -4.18896       -3.53029
H          8.69003       -2.58289       -3.71349
H          8.22491       -3.86214       -6.46835
H          8.86521       -2.29589       -5.88168
H          6.28072       -2.68344       -7.50868
H          7.82310       -2.12523       -8.14934
H          7.73158       -0.14316       -6.53923
H          6.12481       -0.66597       -6.03239
H          5.30085       -0.39549       -8.40094
H          6.90112        0.15358       -8.88508
H          5.09801        1.56970       -6.81113
H          5.39006        2.11357       -8.47190
H          6.71509        2.12216       -7.29442
