48

C          0.51975        0.89511       -0.23832
C          1.70305        0.13049        0.35774
C          2.57108        1.00016        1.27744
C          3.75891        0.22705        1.86187
C          4.70094        1.02040        2.79092
C          5.91990        0.16629        3.18488
O          6.76192        0.96294        3.97890
C          7.88011        0.26278        4.56707
C          8.64149        1.24796        5.43645
C          9.88680        0.63377        6.08900
C         10.61210        1.61649        7.01186
C          3.99680        1.51353        4.08911
S          3.80919        3.33468        4.01147
C          4.74602        3.40508        2.61143
N          5.16596        2.27934        2.09321
C          6.00357        2.25054        0.88802
C          7.51410        2.37132        1.16302
C          8.28760        2.16992       -0.12936
Br        10.19818        1.94620        0.17901
Br         7.91676        4.12446        1.96768
H         -0.07433        0.25072       -0.89871
H          0.85573        1.75706       -0.83341
H         -0.15159        1.27213        0.54687
H          2.33085       -0.27525       -0.45323
H          1.33597       -0.74166        0.92301
H          1.94091        1.40843        2.08549
H          2.93079        1.87165        0.70413
H          4.35082       -0.21381        1.04224
H          3.39447       -0.63280        2.44739
H          6.43580       -0.21339        2.27921
H          5.55063       -0.72313        3.73232
H          8.52276       -0.14358        3.76285
H          7.50224       -0.59175        5.15878
H          7.96130        1.63012        6.21522
H          8.92967        2.11417        4.81845
H         10.57789        0.28481        5.30399
H          9.59759       -0.26288        6.66224
H         10.94080        2.51296        6.46589
H         11.50206        1.15606        7.46013
H          9.96097        1.94793        7.83389
H          4.61055        1.29827        4.97141
H          2.99986        1.07530        4.20644
H          4.98611        4.35949        2.14222
H          5.67129        3.05320        0.21602
H          5.81132        1.29521        0.37922
H          7.82521        1.65997        1.93405
H          8.17145        3.01255       -0.82017
H          7.95764        1.24524       -0.62226
