70

C          0.66429        0.22389        0.05718
C          2.18491        0.20098        0.22778
C          2.74198       -1.19002        0.55036
C          4.26462       -1.20866        0.71553
C          4.84569       -2.59034        1.03516
C          6.37022       -2.57609        1.18803
C          6.98820       -3.94536        1.49085
C          8.51009       -3.88585        1.66308
C          9.15936       -5.24057        1.96379
C         10.67093       -5.13891        2.20170
C         11.32266       -6.48862        2.53141
C         12.79139       -6.34081        2.88840
O         13.32512       -7.64666        3.20790
C         14.64793       -7.58504        3.71344
C         15.09625       -9.00422        3.95268
C         15.35515       -9.46881        5.23641
C         15.68802      -10.80335        5.42813
N         15.74746      -11.63198        4.36460
N         15.53227      -11.22963        3.10884
C         15.22232       -9.95335        2.89256
C         15.07297       -9.59039        1.44345
C         16.33000       -8.85486        0.94889
O         17.14966       -8.35630        1.69847
O         16.35554       -8.82981       -0.38565
C         17.47614       -8.10594       -1.01685
C         18.66082       -9.02112       -1.28294
C         18.36964      -10.16517       -2.25597
C         16.05605      -13.02297        4.55558
C         16.13562      -13.89822        3.55465
H          0.30007        1.23495       -0.17179
H          0.15528       -0.11390        0.97217
H          0.34533       -0.43791       -0.76182
H          2.47685        0.90107        1.02881
H          2.66476        0.57704       -0.69168
H          2.45081       -1.89332       -0.24980
H          2.26707       -1.56765        1.47313
H          4.55093       -0.50192        1.51437
H          4.73306       -0.82501       -0.20806
H          4.56245       -3.30034        0.23841
H          4.38715       -2.97568        1.96282
H          6.64570       -1.87007        1.99121
H          6.82198       -2.17284        0.26463
H          6.73555       -4.65052        0.67984
H          6.53288       -4.35959        2.40747
H          8.75176       -3.18127        2.47819
H          8.96296       -3.45956        0.75091
H          8.96267       -5.93824        1.13149
H          8.68292       -5.68551        2.85460
H         10.85540       -4.43205        3.02920
H         11.15477       -4.70129        1.31178
H         11.22151       -7.17640        1.67657
H         10.80018       -6.95712        3.38076
H         12.91384       -5.67835        3.76584
H         13.37025       -5.90367        2.05267
H         14.68963       -7.01590        4.66155
H         15.34368       -7.09761        3.00314
H         15.28832       -8.80857        6.10105
H         15.89423      -11.24324        6.40273
H         14.20793       -8.92414        1.30916
H         14.90805      -10.49146        0.84160
H         17.75053       -7.26947       -0.36247
H         17.03773       -7.72698       -1.94895
H         19.03900       -9.40645       -0.32357
H         19.46051       -8.37865       -1.68604
H         17.58133      -10.82980       -1.87715
H         19.26843      -10.77331       -2.42049
H         18.04300       -9.78292       -3.23360
H         16.21221      -13.27536        5.60288
H         15.97284      -13.60991        2.51856
H         16.37117      -14.93641        3.77943
