30

C          2.65242       -1.32181       -0.55673
C          2.27590        0.10426       -0.14521
C          2.92285        0.59111        1.16831
P          4.73967        0.65287        1.17550
C          5.35587        1.64552       -0.22261
C          6.87403        1.48398       -0.32784
O          7.49455        0.67904        0.34383
O          7.37742        2.32065       -1.22998
C          8.82276        2.25032       -1.43926
C          5.38207        1.24602        2.76290
C          4.99476        0.35484        3.97143
O          5.49830        0.90838        5.16807
H          2.07252       -1.62809       -1.43598
H          2.43914       -2.04327        0.24506
H          3.71406       -1.42512       -0.82824
H          1.18878        0.16814        0.00760
H          2.49914        0.81375       -0.95685
H          2.64892       -0.07174        2.00575
H          2.57882        1.60235        1.43807
H          5.23049       -0.65488        0.98034
H          5.06729        2.69829       -0.08907
H          4.87468        1.29351       -1.14816
H          9.05149        3.09368       -2.09487
H          9.07831        1.29900       -1.92023
H          9.34487        2.33906       -0.48016
H          5.00897        2.27076        2.91479
H          6.47555        1.28823        2.64844
H          5.34375       -0.68038        3.81092
H          3.90162        0.32678        4.08941
H          6.42299        0.64078        5.29205
