89

C          0.51203        0.20757       -0.29446
C          2.03862        0.24736       -0.18851
C          2.61275       -0.82257        0.74678
C          4.13907       -0.77813        0.87247
C          4.71418       -1.87109        1.77892
C          6.24018       -1.82617        1.91279
C          6.80804       -2.94452        2.79269
C          8.33473       -2.92280        2.92357
C          8.88716       -4.06939        3.77714
C         10.41451       -4.07595        3.89891
C         10.95670       -5.24518        4.72831
C         12.48489       -5.26565        4.83939
C         13.02897       -6.45607        5.63722
C         14.55792       -6.47219        5.74185
C         15.11304       -7.68631        6.49559
C         16.64180       -7.68124        6.60219
C         17.21326       -8.91056        7.32036
C         18.73869       -8.84844        7.42997
C         19.43932       -9.98321        8.12416
C         20.81932       -9.89761        8.39616
C         21.47122      -10.93989        9.01032
N         20.81746      -12.08110        9.36349
C         19.46792      -12.19690        9.16590
C         18.79273      -11.15593        8.53261
C         18.74235      -13.44397        9.57784
C         18.67042      -14.52298        8.49635
O         18.22940      -14.10207        7.20319
C         19.57062      -14.60740        7.33255
C         21.57574      -13.12005       10.07250
C         21.37434      -12.98485       11.61440
O         20.72092      -12.04157       12.03218
C         21.98612      -14.01417       12.47927
C         22.72974      -15.09717       11.96972
C         23.27374      -16.04143       12.83802
C         23.07946      -15.91346       14.21729
C         22.34387      -14.83856       14.73260
C         21.80026      -13.89218       13.87154
H          0.13401        0.97648       -0.98246
H          0.03891        0.37684        0.68452
H          0.16240       -0.76845       -0.66353
H          2.35826        1.24415        0.16004
H          2.48065        0.12405       -1.19197
H          2.30412       -1.82100        0.38883
H          2.16064       -0.71078        1.74848
H          4.44485        0.21228        1.25354
H          4.58965       -0.86546       -0.13219
H          4.41286       -2.86024        1.39073
H          4.25819       -1.79128        2.78173
H          6.54318       -0.84633        2.32225
H          6.69573       -1.88620        0.90842
H          6.49427       -3.92109        2.38306
H          6.35567       -2.88243        3.79835
H          8.65289       -1.95721        3.35478
H          8.78769       -2.96676        1.91723
H          8.55420       -5.03132        3.34846
H          8.44077       -4.02057        4.78612
H         10.75124       -3.12328        4.34447
H         10.86004       -4.10966        2.88894
H         10.61194       -6.19534        4.28319
H         10.51669       -5.21071        5.74057
H         12.83024       -4.32531        5.30402
H         12.92265       -5.27860        3.82565
H         12.68538       -7.39499        5.16822
H         12.59260       -6.44841        6.65151
H         14.89918       -5.54687        6.23832
H         14.99190       -6.44694        4.72684
H         14.78383       -8.61108        5.99008
H         14.67551       -7.72171        7.50866
H         16.96765       -6.76744        7.12899
H         17.07820       -7.61844        5.58999
H         16.90929       -9.81970        6.77444
H         16.77001       -8.98413        8.32827
H         19.04193       -7.91391        7.93456
H         19.18068       -8.76784        6.41894
H         21.38970       -9.00842        8.12787
H         22.53417      -10.91155        9.24182
H         17.72511      -11.28441        8.36518
H         17.71083      -13.15823        9.83064
H         19.16372      -13.87907       10.49360
H         18.20492      -15.44949        8.85195
H         20.35825      -13.86095        7.18219
H         19.75145      -15.57819        6.86300
H         22.63706      -12.99365        9.82275
H         21.26997      -14.10798        9.71066
H         22.89631      -15.21403       10.89782
H         23.85094      -16.87676       12.44202
H         23.50338      -16.65558       14.89461
H         22.19621      -14.74396       15.80842
H         21.22592      -13.04687       14.25056
