74

C          0.74095        0.79799        0.60908
C          2.22746        0.46635        0.46270
C          2.66729        0.25320       -0.99170
C          4.13732       -0.15492       -1.11807
C          4.63218       -0.32024       -2.56213
C          6.08033       -0.83222       -2.60444
C          6.82278       -1.03449       -3.94003
C          7.21279        0.23952       -4.70819
C          6.07405        0.97407       -5.41683
N          4.86572        0.09675       -5.77256
C          5.01045       -1.44590       -5.74631
C          6.22242       -2.00817       -4.98090
C          5.83519       -3.41553       -4.47239
C          7.01480       -4.38056       -4.36005
O          7.82077       -4.08036       -3.18843
C          9.09579       -3.64274       -3.39201
O          9.55146       -3.32871       -4.47323
C          9.84039       -3.56663       -2.07900
S          9.58740       -1.93568       -1.28010
C          6.58796       -5.83731       -4.20802
O          7.75392       -6.65708       -4.38664
C          8.22693       -7.32968       -3.29090
O          7.71993       -7.29088       -2.19107
C          9.45539       -8.12798       -3.66031
S          9.01093       -9.66458       -4.55233
C          4.30280        0.47593       -7.14569
O          5.03298        0.81264       -8.03257
O          3.00139        0.30121       -7.10733
C          2.28841        0.52181       -8.40663
C          0.95499       -0.18746       -8.35239
C          0.19811       -0.01208       -9.68141
C         -1.15036       -0.73594       -9.69049
H          0.46967        0.95369        1.66163
H          0.10924       -0.01507        0.22178
H          0.47675        1.71450        0.06087
H          2.46122       -0.44039        1.04542
H          2.83350        1.27358        0.90691
H          2.48604        1.18050       -1.56500
H          2.03039       -0.52164       -1.45490
H          4.29992       -1.10373       -0.57918
H          4.77355        0.59034       -0.61115
H          4.54078        0.66558       -3.05881
H          3.95208       -1.01860       -3.08513
H          6.11695       -1.78880       -2.06007
H          6.70462       -0.15324       -2.00121
H          7.78503       -1.47269       -3.64437
H          7.96721       -0.04291       -5.45685
H          7.69581        0.96047       -4.03404
H          6.40853        1.40769       -6.36455
H          5.65122        1.77194       -4.79457
H          4.14045        0.30119       -5.07215
H          5.04768       -1.76753       -6.79451
H          4.06272       -1.79100       -5.31534
H          7.02188       -2.14734       -5.72699
H          5.13041       -3.87057       -5.18896
H          5.29940       -3.35401       -3.51219
H          7.66345       -4.28580       -5.24453
H         10.90837       -3.73488       -2.25129
H          9.45246       -4.30627       -1.36876
H         10.38293       -1.23948       -2.12668
H          5.87879       -6.11674       -5.00025
H          6.14541       -6.02697       -3.21939
H         10.02357       -8.35944       -2.75374
H         10.08334       -7.56356       -4.36097
H          8.44176      -10.28304       -3.49068
H          2.94417        0.13931       -9.19971
H          2.19136        1.61056       -8.51806
H          0.35198        0.20849       -7.52046
H          1.11737       -1.25963       -8.15680
H          0.82306       -0.38574      -10.50917
H          0.04332        1.06188       -9.87511
H         -1.02602       -1.81802       -9.54072
H         -1.66399       -0.59078      -10.64942
H         -1.81336       -0.36097       -8.89793
