86

C          1.00306        1.37231       -3.24728
C          2.50700        1.28921       -3.51693
C          3.09645       -0.09776       -3.24106
C          4.59234       -0.20199       -3.55339
C          5.18265       -1.58877       -3.27964
C          6.65928       -1.71483       -3.66774
C          7.24456       -3.10679       -3.40883
C          8.69866       -3.25632       -3.86762
C          9.27251       -4.65723       -3.63196
C         10.69598       -4.83541       -4.16976
C         11.25815       -6.24286       -3.94396
C         12.63458       -6.45875       -4.58242
C         13.17587       -7.87676       -4.36620
C         14.52137       -8.07655       -5.06661
N         15.02558       -9.45777       -4.93476
N         14.46848      -10.42537       -5.74734
C         15.02922      -11.54175       -5.38702
N         15.94542      -11.34783       -4.37322
C         15.92232      -10.00526       -4.08699
N         16.71431       -9.46133       -3.14195
N         16.70718       -8.07926       -2.87169
C         16.20061       -7.83106       -1.51517
C         18.05102       -7.51852       -3.08271
C         16.84443      -12.33621       -3.77985
O         16.70819      -12.24445       -2.38651
C         17.44841      -13.27707       -1.67811
C         17.27106      -13.06088       -0.18664
C         17.95891      -14.15114        0.64501
C         17.80443      -13.92988        2.15385
C         18.47101      -15.01844        2.99988
C         18.32579      -14.79122        4.50831
C         18.99054      -15.88428        5.34753
H          0.61117        2.37800       -3.45217
H          0.77241        1.13225       -2.19856
H          0.44663        0.66302       -3.87800
H          3.03547        2.03633       -2.90119
H          2.70849        1.56478       -4.56591
H          2.54819       -0.84980       -3.83566
H          2.92200       -0.36359       -2.18344
H          5.14310        0.55276       -2.96495
H          4.75896        0.06055       -4.61308
H          4.59884       -2.34671       -3.83120
H          5.06150       -1.83335       -2.20979
H          7.24973       -0.96069       -3.11860
H          6.77304       -1.46757       -4.73786
H          6.62477       -3.86145       -3.92437
H          7.17234       -3.34050       -2.33211
H          9.32708       -2.51000       -3.35086
H          8.76384       -3.01481       -4.94314
H          8.61266       -5.40323       -4.10889
H          9.25503       -4.88418       -2.55146
H         11.36460       -4.09215       -3.70154
H         10.70292       -4.61180       -5.25089
H         10.55212       -6.98525       -4.35448
H         11.31791       -6.44596       -2.86056
H         13.35010       -5.72220       -4.17714
H         12.56701       -6.25629       -5.66506
H         12.45689       -8.61481       -4.75480
H         13.28871       -8.07536       -3.28742
H         15.29176       -7.41576       -4.65606
H         14.43003       -7.90435       -6.14749
H         14.82080      -12.51308       -5.82437
H         17.07871      -10.12237       -2.44116
H         15.17791       -8.21635       -1.42381
H         16.18468       -6.74766       -1.34593
H         16.83541       -8.29694       -0.73590
H         18.37101       -7.70921       -4.11343
H         18.80013       -7.93767       -2.38479
H         17.99588       -6.43405       -2.92698
H         17.88230      -12.12150       -4.10302
H         16.54425      -13.32401       -4.17279
H         18.51389      -13.22426       -1.96747
H         17.05516      -14.26188       -1.98832
H         16.19390      -13.03934        0.04302
H         17.67789      -12.07320        0.08643
H         19.03194      -14.19111        0.39062
H         17.54171      -15.13627        0.37574
H         16.73091      -13.87810        2.40547
H         18.22866      -12.94679        2.42273
H         19.54310      -15.07724        2.74252
H         18.04121      -16.00065        2.73670
H         17.25446      -14.72982        4.76335
H         18.75703      -13.81016        4.76976
H         18.55579      -16.87142        5.13224
H         18.86802      -15.69466        6.42232
H         20.06924      -15.94504        5.14104
