80

C          1.13424       -4.09543       -8.94991
C          2.56595       -4.02504       -8.41404
C          2.85522       -2.73883       -7.63337
C          4.28147       -2.66191       -7.08074
C          4.56077       -1.38392       -6.28379
C          5.98450       -1.31173       -5.72361
C          6.24268       -0.04694       -4.89748
C          7.64492        0.04139       -4.31698
O          8.58769        0.18154       -5.39387
C          9.93733        0.19456       -4.94057
C         10.78953        0.18655       -6.19717
C         11.04831       -1.06015       -6.74648
C         11.51573       -1.23169       -8.06681
C         11.57546       -0.14062       -8.90495
C         11.29114        1.15389       -8.40395
C         11.05011        1.35754       -6.99358
C         11.07373        2.71755       -6.50712
N         10.75014        3.68263       -7.41819
C         10.77772        3.46224       -8.78068
C         11.17263        2.25960       -9.28135
C         10.19752        5.02274       -7.06259
C          8.66948        5.02522       -7.24782
C          8.12069        6.44697       -7.38953
C          8.52358        7.07761       -8.72176
O          9.19245        6.51068       -9.55914
O          8.09072        8.34087       -8.94405
C         11.70506        3.14699       -5.14475
C         10.59155        3.56111       -4.10994
C         10.85183        3.48582       -2.58633
C         11.76229        4.60634       -2.06608
C          9.49461        3.54275       -1.86714
C         12.61707        1.95996       -4.66818
O         13.49040        2.41708       -3.64222
C         12.71670        4.29888       -5.42812
H          0.95428       -5.03061       -9.49720
H          0.92431       -3.26185       -9.63640
H          0.40080       -4.04243       -8.13173
H          3.27896       -4.10955       -9.25168
H          2.75923       -4.89385       -7.76258
H          2.13670       -2.65230       -6.79936
H          2.66780       -1.86733       -8.28533
H          5.00149       -2.73772       -7.91475
H          4.46986       -3.53921       -6.43730
H          3.83703       -1.30864       -5.45346
H          4.37622       -0.50510       -6.92658
H          6.70963       -1.36254       -6.55163
H          6.17312       -2.19771       -5.09206
H          5.53303       -0.00145       -4.05478
H          6.05462        0.85131       -5.50916
H          7.88608       -0.87058       -3.73620
H          7.73487        0.90728       -3.63210
H         10.15796       -0.71289       -4.34496
H         10.10238        1.06243       -4.28592
H         10.82315       -1.94471       -6.14800
H         11.74058       -2.23135       -8.43898
H         11.80335       -0.25409       -9.96552
H         10.49753        4.31980       -9.39259
H         11.31499        2.13567      -10.35419
H         10.67412        5.75147       -7.72819
H         10.44780        5.26435       -6.03231
H          8.19574        4.51881       -6.39497
H          8.40394        4.46231       -8.15328
H          8.45366        7.10069       -6.56574
H          7.02047        6.42665       -7.33474
H          7.55696        8.66499       -8.19643
H          9.69298        2.96287       -4.32308
H         10.29767        4.60253       -4.32182
H         11.32388        2.51930       -2.34935
H         11.34394        5.59481       -2.31469
H         12.77750        4.54396       -2.47149
H         11.84256        4.55270       -0.97166
H          8.96836        4.48478       -2.08887
H          9.62980        3.49221       -0.77841
H          8.83651        2.71247       -2.16318
H         13.19798        1.60771       -5.53928
H         12.02262        1.11623       -4.29643
H         14.06540        1.67954       -3.38731
H         12.25007        5.26742       -5.62283
H         13.36701        4.04981       -6.27883
H         13.36083        4.41755       -4.55320
