66

C          5.80496       -1.61050        6.02150
C          4.74228       -1.62677        4.93229
C          3.50101       -0.78016        5.35248
C          2.61630       -0.42947        4.20960
N          2.49628        0.80073        3.73798
N          1.64392        0.70278        2.68393
C          1.24183       -0.55237        2.50997
N          1.83494       -1.29822        3.46275
C          1.64595       -2.75685        3.62546
C          2.42816       -3.59022        2.60405
C          2.11878       -5.07997        2.76139
S          0.38595       -5.46330        2.38035
C          0.56348       -6.84440        1.20497
S          2.01291       -7.47974        0.73711
N         -0.66427       -7.30620        0.81852
C         -1.86991       -6.52641        0.97600
C         -2.03657       -5.35161        0.22929
C         -3.22351       -4.62510        0.34001
C         -4.24307       -5.07040        1.18759
C         -4.07538       -6.24797        1.92334
C         -2.89179       -6.98121        1.81835
C         -0.82005       -8.61131        0.21412
C         -0.42144       -9.75349        0.91757
C         -0.62101      -11.01216        0.35213
C         -1.21833      -11.13278       -0.90703
C         -1.62040       -9.98845       -1.59943
C         -1.42478       -8.72283       -1.04102
C          1.24418        1.91282        1.93996
C          2.44786        2.72405        1.46198
C          3.25588        2.03738        0.35817
S          4.73794        3.01513        0.01627
O          4.34187        4.29767       -0.52349
O          5.60269        2.90055        1.16293
O          5.40170        2.14303       -1.17750
O          5.23934       -1.19651        3.66568
H          5.40509       -1.97491        6.97785
H          6.18029       -0.58791        6.18295
H          6.64791       -2.25148        5.73524
H          4.41399       -2.66538        4.76441
H          3.83114        0.17556        5.78388
H          2.93563       -1.31261        6.13381
H          0.55147       -0.91380        1.75462
H          0.56773       -2.95232        3.53625
H          1.94314       -3.00232        4.65315
H          3.50843       -3.41900        2.73014
H          2.16282       -3.27000        1.58448
H          2.34339       -5.43337        3.77887
H          2.70977       -5.69518        2.05339
H         -1.23975       -5.02754       -0.44127
H         -3.36167       -3.72092       -0.25470
H         -5.17422       -4.50786        1.26395
H         -4.87208       -6.60172        2.57847
H         -2.75715       -7.90718        2.37805
H          0.04771       -9.65134        1.89614
H         -0.31208      -11.90290        0.90005
H         -1.37312      -12.11909       -1.34540
H         -2.08740      -10.07706       -2.58067
H         -1.73939       -7.82624       -1.57580
H          0.63191        2.51736        2.62335
H          0.60778        1.57558        1.11039
H          3.09218        2.94248        2.32518
H          2.06595        3.68735        1.09524
H          2.69624        1.96028       -0.58409
H          3.62427        1.04367        0.64990
H          5.34203        2.67421       -1.99613
H          5.86765       -0.46742        3.80106
