39

C          2.71871        1.02331       -0.51785
C          3.64138        0.46641        0.56940
C          4.24777       -0.89390        0.18217
C          5.17117       -1.40923        1.26940
O          5.64651       -2.79685        0.95995
C          6.68167       -2.90524        0.16355
O          7.38428       -2.09433       -0.36866
S          6.92541       -4.78304       -0.08256
C          5.84865       -4.86241       -1.58904
C          5.90001       -6.14039       -2.43209
C          5.37651       -7.43940       -1.79226
S          6.73950       -8.43481       -1.15579
O          7.51150       -8.94688       -2.26530
O          7.37609       -7.67418       -0.09992
O          5.95372       -9.64688       -0.44547
C          8.61112       -4.81670       -0.79449
C          9.62054       -4.26381        0.21330
O          9.17774       -4.68104        1.50193
H          2.29121        1.98642       -0.21165
H          1.88275        0.33963       -0.72429
H          3.26141        1.18562       -1.46009
H          3.08217        0.36017        1.51306
H          4.45257        1.18484        0.77008
H          4.80425       -0.79262       -0.76334
H          3.43995       -1.62494        0.01623
H          4.65783       -1.54874        2.22756
H          6.06184       -0.78333        1.40756
H          6.11853       -3.99659       -2.20867
H          4.84341       -4.69914       -1.17268
H          6.90362       -6.29705       -2.85495
H          5.26133       -5.91588       -3.30008
H          4.87374       -8.06741       -2.53848
H          4.68416       -7.26716       -0.95691
H          6.07396      -10.45271       -0.98665
H          8.61764       -4.25461       -1.73651
H          8.76482       -5.88906       -0.97309
H          9.67460       -3.16672        0.13748
H         10.60880       -4.68316       -0.04178
H          9.80535       -4.37947        2.17761
