69

O          1.58195        1.39021       -0.53637
C          2.60988        0.41018       -0.56355
C          2.36481       -0.71173        0.48289
N          2.06060       -0.07945        1.83297
C          2.61484        1.29197        2.14943
O          1.67773        2.15007        2.71429
C          1.07469        1.59493        3.90067
N          0.47572        0.29788        3.59092
C          1.30413       -0.58663        2.82249
N          1.16001       -1.85012        3.20417
C          1.99680       -3.04527        3.00780
C          1.59098       -4.14448        3.96146
C          2.58561       -4.89994        4.59124
C          2.22702       -5.94331        5.44466
C          0.88097       -6.22905        5.67989
C         -0.13368       -5.49053        5.05293
C          0.24388       -4.45448        4.18471
C         -1.58841       -5.79236        5.30420
C          2.04125        1.54932        5.12123
C          2.45505        0.18302        5.61768
C          1.59491       -0.54795        6.45523
C          1.97449       -1.80090        6.93046
C          3.21906       -2.33749        6.58534
C          4.09538       -1.63546        5.74987
C          3.69171       -0.37494        5.27513
C          5.44339       -2.20024        5.37878
C          1.17978       -1.60709        0.02164
C         -0.25967       -1.01644       -0.04361
C         -0.68332       -0.67788       -1.48034
C         -1.26892       -1.99592        0.57835
C          3.68334       -1.51139        0.51356
H          1.71931        2.00871       -1.27062
H          3.60544        0.86491       -0.40290
H          2.65308       -0.10675       -1.53705
H          2.93734        1.76077        1.22296
H          3.48106        1.12942        2.81518
H          0.24835        2.28257        4.11394
H         -0.36316        0.46984        3.02672
H          0.52489       -1.91615        4.00171
H          3.04521       -2.75843        3.17681
H          1.90304       -3.40751        1.97462
H          3.63804       -4.66592        4.42203
H          3.00178       -6.53361        5.93519
H          0.61106       -7.04457        6.35327
H         -0.54311       -3.90059        3.66341
H         -1.72741       -6.81621        5.67213
H         -2.18951       -5.67161        4.39316
H         -2.00487       -5.11211        6.06335
H          1.53626        2.08118        5.93953
H          2.92245        2.15614        4.86767
H          0.63212       -0.12270        6.74339
H          1.30822       -2.35985        7.58868
H          3.51263       -3.31148        6.97837
H          4.38459        0.19903        4.65190
H          5.61780       -3.17015        5.86099
H          6.25670       -1.52554        5.68262
H          5.53941       -2.34314        4.29079
H          1.15767       -2.50895        0.64390
H          1.46823       -1.97404       -0.97554
H         -0.28071       -0.07781        0.53363
H         -0.71119       -1.58596       -2.10210
H         -0.00122        0.04069       -1.94915
H         -1.68927       -0.23622       -1.49714
H         -1.28118       -2.94927        0.02774
H         -2.28851       -1.58813        0.54535
H         -1.03373       -2.22485        1.62794
H          4.49162       -0.91340        0.95462
H          3.98394       -1.77879       -0.50862
H          3.59623       -2.44265        1.07847
