82

C          1.74471        0.75217        0.47544
C          3.13434        0.11179        0.50838
C          3.25848       -1.07064       -0.46270
C          4.66392       -1.68391       -0.42257
N          4.84340       -2.76442       -1.40053
C          5.57800       -2.70683       -2.47436
C          5.51882       -3.95215       -3.26958
C          4.85977       -4.98596       -2.30078
C          4.13747       -4.06148       -1.28091
C          5.94746       -5.84200       -1.60650
C          7.04034       -5.12081       -0.80616
C          8.05733       -6.11228       -0.22846
C          9.14466       -5.46767        0.63581
C         10.18862       -6.48049        1.11748
C         11.24184       -5.89982        2.06544
C         12.28554       -6.93498        2.49749
C         13.29562       -6.41558        3.52510
C         14.31886       -7.47531        3.94622
C         15.27317       -7.01063        5.05063
C         16.28824       -8.08313        5.45661
C         17.15752       -7.65160        6.64446
N         18.16727       -8.63978        7.00645
C         19.48653       -8.61341        6.61572
C         20.10424       -9.76811        7.07981
C         19.12146      -10.52074        7.76812
C         17.93387       -9.80298        7.70527
C          3.86090       -5.88196       -3.06690
C          3.08990       -6.87996       -2.19365
C          2.07892       -7.69541       -3.00370
S          1.21290       -8.83154       -1.90006
O          2.14966       -9.82642       -1.41743
O          0.41058       -8.04589       -0.99614
O          0.19218       -9.55649       -2.93117
H          1.68710        1.59575        1.17496
H          0.96318        0.03254        0.75791
H          1.50270        1.13498       -0.52641
H          3.36218       -0.23082        1.53114
H          3.89756        0.86789        0.26034
H          3.04371       -0.73681       -1.49131
H          2.50602       -1.83446       -0.20965
H          4.87794       -2.10900        0.57069
H          5.42835       -0.92353       -0.63464
H          6.14336       -1.80355       -2.70746
H          6.50916       -4.25848       -3.63743
H          4.90072       -3.77805       -4.17047
H          4.19329       -4.40900       -0.24033
H          3.07675       -3.90143       -1.53071
H          6.42441       -6.46162       -2.38532
H          5.44737       -6.55110       -0.92839
H          6.59494       -4.54305        0.02362
H          7.57758       -4.38914       -1.43560
H          8.52998       -6.66262       -1.06025
H          7.52248       -6.87145        0.36775
H          8.67800       -4.97560        1.50750
H          9.64679       -4.66607        0.06566
H         10.69078       -6.92478        0.24033
H          9.67386       -7.31655        1.62278
H         10.74107       -5.48846        2.95955
H         11.74749       -5.04590        1.58119
H         12.82442       -7.30156        1.60621
H         11.76774       -7.81528        2.91746
H         12.75321       -6.05688        4.41764
H         13.82213       -5.53517        3.11684
H         14.90339       -7.79046        3.06439
H         13.78409       -8.37787        4.29024
H         14.68234       -6.71001        5.93408
H         15.80706       -6.10226        4.72084
H         16.94429       -8.32847        4.60574
H         15.76163       -9.01529        5.71926
H         16.52921       -7.45847        7.52807
H         17.68289       -6.71281        6.41599
H         19.88005       -7.77411        6.05105
H         21.14975      -10.02498        6.94494
H         19.25887      -11.47374        8.26862
H         16.94894      -10.02435        8.10430
H          4.41736       -6.42814       -3.84645
H          3.14434       -5.23221       -3.59837
H          2.54958       -6.35239       -1.39128
H          3.78297       -7.57726       -1.70279
H          2.56183       -8.30942       -3.77660
H          1.30376       -7.07104       -3.46974
H          0.51524      -10.46814       -3.06749
