83

C         10.69230      -13.60792       -3.67965
C         10.52176      -12.69069       -4.89308
C         10.65269      -11.20082       -4.55607
C         10.50096      -10.28341       -5.77333
C         10.65400       -8.79400       -5.45075
C         10.54921       -7.88653       -6.68092
C         10.77525       -6.40624       -6.36369
C         10.70699       -5.48886       -7.58795
C         11.04213       -4.02693       -7.27314
C         11.00294       -3.12285       -8.50824
C         11.42071       -1.67650       -8.25646
O         12.76016       -1.51166       -7.72330
C         13.78455       -1.99239       -8.57873
N         15.03192       -1.29800       -8.27748
C         15.65531       -1.53358       -7.09558
N         16.95299       -1.19768       -6.94447
C         17.70947       -1.43231       -5.70939
C         16.76079       -1.46624       -4.51910
C         15.59416       -2.42052       -4.78439
N         14.98000       -2.08649       -6.08212
C         14.53818       -2.31957       -3.68882
O         13.48435       -3.20505       -3.99682
C         12.51966       -3.29645       -2.93150
C         11.47771       -4.34046       -3.28742
C         10.46642       -4.56961       -2.15638
C          9.42923       -5.64313       -2.49592
C         15.53086       -0.29253       -9.22969
C         16.37814       -0.86603      -10.36397
O         15.56962       -1.74707      -11.10984
C         16.25116       -2.35342      -12.22193
C         15.27117       -3.25352      -12.94709
H         10.59209      -14.66620       -3.95647
H          9.93814      -13.39419       -2.90752
H         11.68267      -13.47867       -3.21735
H          9.53696      -12.87095       -5.35639
H         11.26788      -12.95332       -5.66244
H         11.63555      -11.02025       -4.08425
H          9.89933      -10.93048       -3.79477
H          9.51566      -10.45608       -6.24079
H         11.24805      -10.56623       -6.53615
H         11.63004       -8.62729       -4.96016
H          9.89056       -8.49704       -4.71016
H          9.55855       -8.01687       -7.15027
H         11.28517       -8.21290       -7.43714
H         11.76181       -6.28855       -5.88111
H         10.03485       -6.07561       -5.61563
H          9.70218       -5.54810       -8.04060
H         11.40537       -5.86001       -8.35939
H         12.03815       -3.98001       -6.79996
H         10.33774       -3.63695       -6.51779
H          9.97854       -3.08811       -8.91578
H         11.61717       -3.55941       -9.31498
H         10.77822       -1.20623       -7.49985
H         11.34626       -1.08571       -9.18712
H         13.55744       -1.80665       -9.63824
H         13.94542       -3.07651       -8.43898
H         17.48252       -1.02585       -7.79118
H         18.44460       -0.62405       -5.60019
H         18.26285       -2.38211       -5.79323
H         16.36963       -0.45598       -4.32213
H         17.31251       -1.78919       -3.62704
H         15.95116       -3.46410       -4.82318
H         13.95917       -2.12996       -6.16639
H         14.17360       -1.27400       -3.60720
H         15.01425       -2.58327       -2.72401
H         12.05398       -2.30457       -2.77072
H         13.04572       -3.57263       -1.99704
H         11.99224       -5.28480       -3.52592
H         10.95286       -4.02907       -4.20338
H          9.95370       -3.62175       -1.92153
H         11.00523       -4.85881       -1.23844
H          8.83345       -5.36069       -3.37677
H          8.73199       -5.80012       -1.66252
H          9.90928       -6.60775       -2.71684
H         16.09712        0.47460       -8.68245
H         14.64941        0.20665       -9.65574
H         17.27219       -1.39856       -9.96940
H         16.74957       -0.02700      -10.98600
H         17.12076       -2.92708      -11.84786
H         16.63450       -1.56049      -12.89100
H         14.89766       -4.04497      -12.28312
H         15.76257       -3.73198      -13.80479
H         14.41477       -2.67737      -13.32208
