103

C         17.05868      -12.31030       -0.31411
C         16.52711      -10.87451       -0.31361
C         17.01086      -10.04611        0.88235
C         16.48343       -8.60751        0.89049
C         16.97181       -7.77928        2.08378
C         16.43894       -6.34251        2.09873
C         16.93806       -5.51633        3.28899
C         16.39885       -4.08213        3.31955
C         16.90778       -3.26411        4.51147
C         16.35680       -1.83512        4.56719
C         16.87337       -1.02854        5.76374
C         16.30806        0.39349        5.84815
C         16.82286        1.18588        7.05501
C         16.24281        2.59993        7.16632
C         16.74125        3.37588        8.39069
C         16.16468        4.79362        8.49185
C         16.53171        5.55872        9.77593
C         18.03520        5.72238       10.05532
C         18.80238        6.46706        8.95628
C         20.30880        6.53489        9.22586
C         21.09389        7.29393        8.14255
N         20.85889        6.73286        6.79862
C         21.55487        5.68908        6.33924
N         21.18725        5.08788        5.18559
N         22.62306        5.25836        7.01191
C         23.27215        5.94903        8.14806
C         22.62993        7.32976        8.34358
C         22.98400        7.88185        9.72911
O         23.45696        7.21788       10.62882
O         22.68023        9.18834        9.78434
C         23.01346        9.89657       11.02859
C         24.40882       10.49603       10.94399
C         24.74772       11.34024       12.17998
C         26.13694       11.97701       12.09353
C         24.78752        6.02684        7.90653
C         25.46297        4.65943        7.75969
C         26.99638        4.76931        7.62158
C         27.62230        3.47168        7.41148
C         28.10683        2.37693        7.23918
H         16.69345      -12.87625       -1.18221
H         16.74549      -12.85243        0.59082
H         18.15852      -12.32940       -0.34424
H         15.42395      -10.88995       -0.32064
H         16.82652      -10.37017       -1.24817
H         18.11540      -10.03051        0.89060
H         16.71139      -10.55012        1.81850
H         15.37918       -8.62434        0.88603
H         16.77979       -8.10525       -0.04748
H         18.07614       -7.75849        2.08478
H         16.68061       -8.28478        3.02151
H         15.33486       -6.36334        2.10636
H         16.72336       -5.83760        1.15852
H         18.04226       -5.49045        3.27607
H         16.66138       -6.02772        4.22789
H         15.29511       -4.10795        3.33958
H         16.67042       -3.56863        2.38015
H         18.01157       -3.22906        4.48364
H         16.64861       -3.78839        5.44819
H         15.25384       -1.87105        4.60151
H         16.61096       -1.30697        3.63092
H         17.97661       -0.98233        5.72272
H         16.63180       -1.56871        6.69596
H         15.20607        0.34486        5.89003
H         16.54791        0.94029        4.91845
H         17.92608        1.24388        7.01059
H         16.59214        0.62764        7.97903
H         15.14138        2.54024        7.19993
H         16.48048        3.16852        6.24833
H         17.84557        3.41282        8.36528
H         16.48595        2.81367        9.30594
H         15.06579        4.73594        8.43430
H         16.46702        5.37507        7.60245
H         16.08012        5.04270       10.63824
H         16.06034        6.55493        9.74206
H         18.49579        4.73131       10.20394
H         18.16300        6.25677       11.01039
H         18.39518        7.48808        8.84761
H         18.62790        5.96103        7.99210
H         20.70894        5.51288        9.33361
H         20.49633        7.03683       10.18810
H         20.73633        8.33212        8.09771
H         20.12780        7.12493        6.21663
H         20.24249        5.18001        4.83429
H         21.76439        4.36914        4.76802
H         23.05878        4.39328        6.70662
H         23.09133        5.34753        9.05350
H         23.03471        8.03344        7.59853
H         22.91672        9.19236       11.86524
H         22.24066       10.67190       11.10532
H         24.47608       11.11807       10.03668
H         25.14643        9.68435       10.83590
H         24.68386       10.71041       13.08232
H         23.98747       12.12952       12.30281
H         26.92304       11.21289       12.00633
H         26.35428       12.57559       12.98767
H         26.21907       12.64105       11.22077
H         25.22289        6.55278        8.76884
H         24.97816        6.64819        7.01510
H         25.09582        4.12081        6.86829
H         25.22918        4.02559        8.62942
H         27.41544        5.24001        8.52662
H         27.24883        5.43846        6.78130
H         28.55727        1.41799        7.08995
