88

C         12.08322        2.09262      -16.46410
C         13.09449        1.16951      -15.77903
C         12.65459        0.71524      -14.38245
C         13.66394       -0.20595      -13.68892
C         13.25120       -0.61915      -12.27193
C         14.27173       -1.52772      -11.57763
C         13.91672       -1.86313      -10.12470
C         14.94636       -2.76620       -9.43658
C         14.70295       -2.96439       -7.93622
C         15.73092       -3.90060       -7.28916
C         15.67499       -3.99108       -5.75631
C         14.31654       -4.38153       -5.17547
O         13.74897       -5.57452       -5.77019
C         14.32266       -6.78644       -5.35913
N         14.28635       -7.74048       -6.49281
C         13.29280       -7.59646       -7.43208
N         13.64102       -7.47906       -8.71899
C         12.69961       -7.61288       -9.84038
O         11.42252       -7.95031       -9.36273
C         11.10989       -7.17530       -8.21064
N         11.99206       -7.55001       -7.10491
C         11.42096       -8.23984       -5.93102
C         10.99895       -9.68640       -6.22218
C         12.15081      -10.59111       -6.66946
C         11.76494      -12.07164       -6.75367
N         12.90562      -12.86132       -7.23143
C         15.53538       -8.33056       -6.92475
O         16.21439       -7.42758       -7.79414
C         17.53920       -7.86287       -8.17613
C         18.10004       -6.86039       -9.16992
C         19.52919       -7.20282       -9.60764
C         20.07153       -6.25232      -10.68201
C         21.51028       -6.57139      -11.09333
H         12.43243        2.40621      -17.45741
H         11.90764        3.00287      -15.87158
H         11.11154        1.59344      -16.59667
H         14.06768        1.68356      -15.70084
H         13.27276        0.28268      -16.41099
H         11.67919        0.20199      -14.45613
H         12.47881        1.60430      -13.75116
H         14.64508        0.29909      -13.64547
H         13.81827       -1.10926      -14.30543
H         12.27042       -1.12593      -12.30704
H         13.09893        0.28771      -11.66071
H         15.26223       -1.04015      -11.59867
H         14.38607       -2.46161      -12.15706
H         12.92042       -2.33936      -10.08547
H         13.82071       -0.92362       -9.55287
H         15.95396       -2.33793       -9.57945
H         14.96917       -3.75042       -9.94065
H         13.68306       -3.35808       -7.78212
H         14.72711       -1.98071       -7.43541
H         16.74415       -3.56824       -7.56905
H         15.62318       -4.91109       -7.71338
H         15.93184       -3.01642       -5.30749
H         16.45494       -4.68764       -5.40610
H         13.56443       -3.60859       -5.37961
H         14.37378       -4.50162       -4.07977
H         13.77543       -7.19944       -4.49065
H         15.38428       -6.68322       -5.08554
H         14.63400       -7.27144       -8.88892
H         13.01570       -8.43040      -10.50428
H         12.69524       -6.66021      -10.40268
H         10.07454       -7.40038       -7.93874
H         11.22404       -6.09700       -8.41790
H         10.56878       -7.63658       -5.58936
H         12.16668       -8.22038       -5.12885
H         10.18971       -9.70398       -6.97042
H         10.55406      -10.07282       -5.29044
H         13.00518      -10.49863       -5.97955
H         12.51225      -10.27074       -7.66226
H         10.85161      -12.17988       -7.37226
H         11.50321      -12.43210       -5.74699
H         12.98655      -12.80262       -8.24750
H         12.77792      -13.84912       -7.01316
H         15.32153       -9.28692       -7.43607
H         16.14161       -8.54321       -6.02818
H         17.48269       -8.87498       -8.61873
H         18.16828       -7.92454       -7.26928
H         18.07290       -5.85683       -8.71638
H         17.43859       -6.82551      -10.05234
H         19.56387       -8.23842       -9.98898
H         20.19721       -7.17969       -8.72930
H         20.01226       -5.21453      -10.31301
H         19.41460       -6.29697      -11.56719
H         22.20024       -6.47824      -10.24184
H         21.86107       -5.89015      -11.87983
H         21.59834       -7.59754      -11.48010
