30

C          1.14650        0.54410       -0.48215
O          2.50468        0.10098       -0.14883
C          3.18165        0.85770        0.69025
O          2.80439        1.88201        1.24057
C          4.60208        0.32871        0.92957
N          5.15785        1.15599        2.05763
C          4.97748        0.45058        3.38531
C          5.12933        1.38152        4.58750
C          4.45902        0.72932        5.82292
F          4.91010       -0.52403        6.04285
F          4.72094        1.47213        6.92114
F          3.11714        0.67386        5.65263
O          6.50464        1.61160        4.80776
C          6.54660        1.72311        1.77533
C          7.64199        0.67567        1.70258
H          0.77609       -0.20439       -1.18577
H          1.18629        1.53771       -0.94181
H          0.53627        0.56923        0.42765
H          5.20782        0.47971        0.02691
H          4.61263       -0.73808        1.17833
H          4.47479        1.95487        2.06630
H          5.69977       -0.37225        3.44381
H          3.96073        0.03794        3.37413
H          4.56878        2.32261        4.41567
H          6.61663        2.14887        5.61140
H          6.74423        2.44526        2.57534
H          6.43589        2.27111        0.82948
H          7.81249        0.18752        2.66945
H          8.57630        1.18273        1.42930
H          7.45378       -0.08938        0.93724
