55

C          0.71930        0.29878        0.10379
C          2.20431        0.10073       -0.21067
C          2.81180        1.27693       -0.98292
C          4.31992        1.12543       -1.19067
C          4.95322        2.40029       -1.81545
C          6.44753        2.34217       -1.77302
C          7.12805        1.62520       -2.77344
C          8.50842        1.48069       -2.77454
C          9.33127        0.74392       -3.79683
C          8.52481       -0.10316       -4.78371
C          9.41738       -0.86429       -5.76495
C          8.57565       -1.68212       -6.74551
O          7.36862       -1.70015       -6.73756
O          9.26751       -2.41382       -7.65938
N          9.18131        2.07867       -1.75488
C          8.58136        2.79143       -0.77048
C          7.20653        2.95043       -0.73182
C          6.59541        3.73496        0.40723
C          5.79570        2.86999        1.36986
C          4.47569        3.20288        1.69630
C          3.72653        2.39340        2.54959
C          4.26997        1.22596        3.10776
C          5.60218        0.91161        2.79647
C          6.35308        1.71786        1.94097
C          3.44207        0.33360        3.99381
H          0.31019       -0.55701        0.65724
H          0.12531        0.41312       -0.81480
H          0.55918        1.19914        0.71582
H          2.34386       -0.82972       -0.78571
H          2.76744       -0.03216        0.72810
H          2.62122        2.20853       -0.42407
H          2.30493        1.39180       -1.95628
H          4.53637        0.26071       -1.83897
H          4.80075        0.92211       -0.22334
H          4.58685        3.28090       -1.27248
H          4.61974        2.49660       -2.85968
H          6.55430        1.16482       -3.57682
H         10.05631        0.10778       -3.25846
H          9.93601        1.48871       -4.34598
H          7.83622        0.53012       -5.36151
H          7.89728       -0.82549       -4.24115
H         10.10220       -1.54636       -5.23263
H         10.05370       -0.17131       -6.34171
H         10.22756       -2.29897       -7.54538
H         10.19745        1.99069       -1.73306
H          9.24543        3.22268       -0.02258
H          5.94421        4.52260       -0.00038
H          7.40222        4.25715        0.94553
H          4.02450        4.10482        1.27629
H          2.69752        2.67255        2.78457
H          6.05812        0.02018        3.23141
H          7.38518        1.43671        1.71788
H          2.81524        0.91886        4.67958
H          4.07038       -0.33864        4.59115
H          2.76437       -0.29361        3.39340
