83

C          0.70071        2.65109        0.61215
O          2.00033        2.07436        0.67975
C          2.99210        2.90686        0.11473
C          4.31642        2.16637        0.23735
O          5.31925        2.98285       -0.38203
C          6.59625        2.40237       -0.37659
C          7.50946        3.41503       -1.07759
N          8.86336        2.87762       -1.26977
C          9.28960        2.18800       -2.34915
C          8.58044        1.83869       -3.61718
O          9.55253        1.23210       -4.42754
C          9.07495        0.83364       -5.73712
C         10.26291        0.31895       -6.52858
C          9.88495       -0.14230       -7.94272
C         11.10899       -0.54875       -8.77201
C         10.76920       -1.00284      -10.19496
C         12.00663       -1.35361      -11.02838
C         11.68426       -1.79383      -12.45976
C         12.92759       -2.12229      -13.29280
C         12.61297       -2.55509      -14.72890
C         13.86229       -2.87892      -15.55225
N         10.55238        1.86159       -2.09273
N         10.97670        2.30288       -0.88298
C          9.93243        2.93026       -0.37631
C          9.94571        3.65676        0.92040
C         10.45407        5.11078        0.74698
O          9.58961        5.71232       -0.22968
C         10.23798        6.59988       -1.17080
C         10.76860        7.87416       -0.56318
C         12.14755        8.07007       -0.41244
C         12.63927        9.22779        0.19659
C         11.75094       10.20192        0.65776
C         10.37203       10.01952        0.50234
C          9.88429        8.86382       -0.10680
C         10.44694        5.85281        2.08030
H          0.01056        1.93279        1.06871
H          0.39546        2.83340       -0.43415
H          0.65294        3.60446        1.16852
H          3.05206        3.87953        0.64205
H          2.78101        3.11721       -0.95294
H          4.25036        1.18641       -0.26991
H          4.56391        1.99047        1.29974
H          6.60689        1.43349       -0.91948
H          6.95595        2.20242        0.65349
H          7.60320        4.34875       -0.51168
H          7.09530        3.66651       -2.06259
H          8.16045        2.75984       -4.07342
H          7.72520        1.16602       -3.39676
H          8.61470        1.70907       -6.23082
H          8.29797        0.05704       -5.61505
H         10.72676       -0.51375       -5.97531
H         11.01641        1.12092       -6.58972
H          9.34714        0.66793       -8.46489
H          9.18001       -0.98883       -7.88244
H         11.65212       -1.35589       -8.25008
H         11.80899        0.30372       -8.82069
H         10.20000       -0.20645      -10.70603
H         10.09495       -1.87600      -10.15151
H         12.57470       -2.15259      -10.51998
H         12.68092       -0.47955      -11.06050
H         11.10712       -0.99886      -12.96431
H         11.02017       -2.67560      -12.43077
H         13.50370       -2.91971      -12.79063
H         13.59337       -1.24117      -13.31694
H         12.03789       -1.75775      -15.22967
H         11.94841       -3.43540      -14.70502
H         14.52906       -2.00692      -15.62704
H         13.60275       -3.18593      -16.57459
H         14.44004       -3.69712      -15.09695
H         11.16170        1.34447       -2.72457
H         10.60537        3.11310        1.60929
H          8.94097        3.67462        1.36604
H         11.48204        5.06605        0.34262
H          9.45455        6.81549       -1.91170
H         11.05622        6.05599       -1.67813
H         12.84335        7.31011       -0.77641
H         13.71460        9.37007        0.30855
H         12.13161       11.10752        1.13115
H          9.67831       10.78508        0.85158
H          8.80809        8.72073       -0.22399
H          9.42360        5.92565        2.47401
H         10.84083        6.86763        1.95907
H         11.07097        5.33027        2.81905
