110

C          1.95140       -1.59628        0.68877
C          3.45540       -1.33354        0.79570
C          4.21389       -2.43723        1.54142
C          5.72456       -2.19557        1.62017
C          6.48972       -3.29514        2.36411
C          8.00675       -3.07712        2.37345
C          8.78121       -4.18480        3.09953
C         10.30825       -4.10664        2.93454
C         10.98541       -2.86394        3.53874
C         10.99190       -2.80479        5.06237
O         11.61868       -3.96177        5.69218
C         12.96256       -4.12288        5.39767
N         13.55731       -4.90041        6.55128
C         12.93803       -6.28081        6.65009
C         13.10987       -6.98915        7.99566
O         14.48050       -7.33851        8.27832
C         14.91459       -8.55139        7.79659
O         14.25718       -9.24946        7.05863
C         16.30467       -8.85256        8.30225
S         17.55492       -7.67158        7.66863
C         12.61378       -6.18319        9.20182
O         12.85669       -6.89474       10.42312
C         12.05643       -7.98580       10.64817
O         11.10105       -8.26969        9.95830
C         12.57470       -8.79053       11.81413
S         13.87178       -9.94865       11.22604
C         15.07171       -4.88751        6.52380
C         15.56729       -3.53459        7.02761
O         14.75824       -3.22037        8.15876
C         15.04483       -1.94182        8.76029
C         14.31723       -0.79543        8.05152
O         14.97133        0.38534        8.47300
C         14.60681        1.58716        7.89151
C         13.47995        1.77124        7.08401
C         13.22183        3.03595        6.54802
C         14.05604        4.13791        6.79085
C         15.17871        3.91525        7.60546
C         15.45475        2.66565        8.15468
C         13.73560        5.51030        6.18044
C         12.37108        6.07741        6.69797
C         12.03367        6.36158        8.19343
C         12.97621        7.38854        8.85203
C         10.61120        6.96477        8.18363
C         12.00140        5.08431        9.05629
C         14.88758        6.51661        6.37327
C         13.57431        5.33474        4.64759
H          1.43893       -0.78636        0.15179
H          1.48747       -1.68014        1.68284
H          1.74666       -2.53288        0.14919
H          3.62721       -0.36883        1.30283
H          3.88216       -1.22168       -0.21559
H          4.02588       -3.40585        1.04538
H          3.80272       -2.53714        2.56158
H          5.91461       -1.22313        2.10823
H          6.12939       -2.10216        0.59693
H          6.26906       -4.27181        1.89908
H          6.11881       -3.36488        3.40184
H          8.22255       -2.09483        2.82882
H          8.36713       -3.01125        1.33150
H          8.45163       -5.16157        2.71009
H          8.50642       -4.19197        4.16892
H         10.54772       -4.13202        1.85975
H         10.76288       -5.01476        3.36473
H         10.48652       -1.94543        3.19054
H         12.01911       -2.78343        3.16172
H          9.97660       -2.81087        5.47742
H         11.50792       -1.89556        5.42043
H         13.50159       -3.16156        5.33896
H         13.15635       -4.71581        4.48467
H         13.32270       -4.34825        7.40036
H         13.36746       -6.88968        5.84396
H         11.86666       -6.14415        6.45556
H         12.52470       -7.91676        7.90584
H         16.57338       -9.87738        8.02907
H         16.32662       -8.74848        9.39457
H         17.61368       -8.17884        6.41409
H         11.54099       -5.96762        9.08389
H         13.17699       -5.24742        9.32841
H         11.75602       -9.34480       12.28351
H         13.07043       -8.15025       12.55299
H         13.04457      -10.73711       10.49946
H         15.40857       -5.10337        5.50187
H         15.41326       -5.69089        7.18458
H         15.49898       -2.74805        6.25511
H         16.62883       -3.63566        7.31128
H         16.12954       -1.75072        8.74614
H         14.72479       -2.02513        9.80642
H         13.24494       -0.79107        8.32066
H         14.38996       -0.90762        6.95096
H         12.79127        0.95245        6.87412
H         12.32904        3.15536        5.93291
H         15.86251        4.73300        7.82731
H         16.33054        2.50960        8.78500
H         11.58296        5.39853        6.32892
H         12.21577        7.02328        6.15038
H         13.10464        8.28454        8.22744
H         13.96963        6.96890        9.05672
H         12.56050        7.71444        9.81685
H         10.57780        7.90364        7.61128
H         10.27515        7.18378        9.20745
H          9.88538        6.27114        7.73316
H         12.99602        4.63862        9.18088
H         11.34489        4.31860        8.61720
H         11.61511        5.32071       10.05907
H         15.15237        6.69032        7.42133
H         14.60242        7.48814        5.94725
H         15.79263        6.17829        5.84813
H         12.72869        4.68270        4.39037
H         14.48424        4.89972        4.21079
H         13.39756        6.30881        4.16946
