96

C          1.42705       -5.29550       -8.80441
C          2.92188       -4.98238       -8.91196
C          3.40825       -3.98338       -7.85624
C          4.89935       -3.64572       -7.96503
C          5.36924       -2.64312       -6.90658
C          6.84276       -2.24089       -7.03650
C          7.27426       -1.23088       -5.96910
C          8.72522       -0.75218       -6.10282
C          9.08350        0.31030       -5.05431
C         10.52103        0.81423       -5.09253
N         10.90900        1.40281       -6.44966
C         10.06121        2.55481       -6.90716
C         10.16873        3.77079       -5.98439
O         11.05576        3.91729       -5.16574
O          9.16462        4.59940       -6.25246
C          9.13586        5.88916       -5.52903
C          9.88093        6.96390       -6.30151
C          9.76242        8.33069       -5.61216
C         10.48405        9.44602       -6.37637
C         10.35096       10.82112       -5.71394
C         11.07190       11.93423       -6.48050
C         10.98089       13.30793       -5.80666
C         11.69588       14.41090       -6.59099
C         12.41009        1.64359       -6.54616
O         12.92949        0.37418       -6.75065
C         14.35957        0.26352       -6.50631
C         14.73884       -1.20470       -6.54942
C         16.24361       -1.41749       -6.33650
C         16.62983       -2.89653       -6.22023
C         18.13525       -3.11055       -6.03234
C         18.52665       -4.57284       -5.79727
C         20.03493       -4.77447       -5.61780
C         20.43520       -6.22347       -5.31910
C         21.94339       -6.40450       -5.13018
H          1.11318       -6.02453       -9.56353
H          0.81827       -4.38930       -8.94290
H          1.17544       -5.71375       -7.81831
H          3.14394       -4.58434       -9.91688
H          3.50278       -5.91610       -8.82240
H          3.19650       -4.38555       -6.84963
H          2.81860       -3.05273       -7.93747
H          5.10880       -3.24120       -8.97124
H          5.49317       -4.57294       -7.88241
H          5.19427       -3.06480       -5.90130
H          4.74291       -1.73523       -6.96427
H          7.01565       -1.81182       -8.03969
H          7.48047       -3.13976       -6.97637
H          7.13534       -1.67183       -4.96732
H          6.60347       -0.35471       -6.00778
H          8.85864       -0.35618       -7.12935
H          9.41528       -1.60871       -6.01557
H          8.94382       -0.11117       -4.04616
H          8.37642        1.15434       -5.10815
H         11.23773       -0.00319       -4.94037
H         10.70983        1.60236       -4.35502
H         10.74988        0.64249       -7.13092
H          9.02242        2.21471       -6.97917
H         10.39337        2.83652       -7.91640
H          9.55825        5.72598       -4.52919
H          8.06421        6.10798       -5.44859
H          9.47116        7.02318       -7.32248
H         10.94256        6.68278       -6.39120
H         10.16961        8.26426       -4.58892
H          8.69670        8.59449       -5.50165
H         10.08848        9.49612       -7.40580
H         11.55324        9.18877       -6.47379
H         10.74548       10.77046       -4.68396
H          9.28122       11.07694       -5.61611
H         10.65833       12.00071       -7.50248
H         12.13531       11.66207       -6.60360
H         11.40739       13.24088       -4.79157
H          9.92034       13.57819       -5.67052
H         12.76092       14.17397       -6.73147
H         11.63759       15.37764       -6.07345
H         11.25382       14.54219       -7.58992
H         12.74236        2.12516       -5.61359
H         12.57457        2.32950       -7.39833
H         14.58317        0.70633       -5.51888
H         14.89827        0.84405       -7.27562
H         14.43101       -1.62776       -7.51876
H         14.17023       -1.74056       -5.77197
H         16.56640       -0.88993       -5.42185
H         16.80209       -0.95496       -7.16827
H         16.28877       -3.43939       -7.11888
H         16.08711       -3.34582       -5.37008
H         18.48394       -2.50300       -5.17860
H         18.67186       -2.72349       -6.91607
H         18.17053       -5.19134       -6.63982
H         17.99986       -4.94955       -4.90264
H         20.39344       -4.12452       -4.79976
H         20.56033       -4.43052       -6.52634
H         20.08376       -6.87512       -6.13704
H         19.90612       -6.56496       -4.41312
H         22.49683       -6.11966       -6.03754
H         22.19892       -7.44798       -4.90064
H         22.32036       -5.78126       -4.30536
