68

C          5.61341       -1.47663        2.41515
C          5.40900       -1.12867        0.93928
C          6.71678       -1.09510        0.14021
C          6.50241       -0.76094       -1.33989
C          7.77805       -0.65132       -2.16021
O          8.56860       -1.89944       -2.13719
C          8.21292       -2.85903       -2.98748
O          7.31840       -2.79164       -3.81758
C          9.05801       -4.12468       -2.79185
N          9.51924       -4.71538       -4.04658
C          8.72606       -5.56207       -4.75561
N          9.28186       -6.37642       -5.65754
N          7.39481       -5.53803       -4.53987
C          6.48021       -6.54139       -4.96494
C          6.71274       -7.90290       -4.75057
C          5.76948       -8.84638       -5.16141
C          4.58087       -8.42361       -5.75927
C          4.32384       -7.06370       -5.95381
C          5.27342       -6.11109       -5.56413
O          5.14818       -4.76255       -5.69780
C          3.93640       -4.24000       -6.25880
C         10.85557       -4.32541       -4.52975
C         12.00418       -5.19387       -3.99330
O         11.79553       -6.50127       -4.55060
C         12.33351       -7.62993       -3.81292
C         11.32025       -8.74137       -3.87684
C         11.25780       -9.58456       -4.99607
C         10.26247      -10.55996       -5.09365
C          9.32658      -10.71010       -4.06606
C          9.38744       -9.88130       -2.94121
C         10.37639       -8.89906       -2.85149
C         13.36981       -4.62511       -4.36643
H          4.66034       -1.48450        2.96005
H          6.27276       -0.74919        2.91033
H          6.07068       -2.47049        2.53292
H          4.90835       -0.14969        0.85620
H          4.72152       -1.85835        0.47853
H          7.22427       -2.07042        0.23274
H          7.40177       -0.35442        0.58872
H          5.99817        0.21631       -1.43237
H          5.82530       -1.49265       -1.80825
H          8.47331        0.08442       -1.73714
H          7.56865       -0.40708       -3.20930
H          8.43428       -4.85518       -2.25335
H          9.92946       -3.90431       -2.16445
H         10.25523       -6.66845       -5.49449
H          8.66876       -6.95062       -6.22565
H          7.01362       -4.59995       -4.33017
H          7.62505       -8.22562       -4.24780
H          5.95903       -9.90624       -4.99487
H          3.83555       -9.15482       -6.07224
H          3.38850       -6.74996       -6.41384
H          3.06442       -4.51537       -5.64630
H          3.79482       -4.59042       -7.29240
H          4.05979       -3.15274       -6.25415
H         11.02025       -3.27832       -4.23926
H         10.85230       -4.36120       -5.62857
H         11.91703       -5.26765       -2.89166
H         12.51634       -7.32654       -2.76929
H         13.29393       -7.92599       -4.26384
H         11.99930       -9.48217       -5.79122
H         10.22768      -11.21546       -5.96423
H          8.56113      -11.48404       -4.13367
H          8.67045      -10.00727       -2.12901
H         10.42775       -8.25884       -1.96779
H         13.47254       -4.54056       -5.45706
H         14.17186       -5.27743       -3.99822
H         13.51996       -3.63141       -3.92154
