55

C          1.00077       -0.17509        0.80669
C          2.50852       -0.31280        0.58627
C          2.87332       -0.78543       -0.82590
C          4.38249       -0.91958       -1.04852
C          4.75081       -1.37642       -2.46629
C          6.26969       -1.48566       -2.65701
C          6.82227       -1.99946       -4.01368
C          8.36106       -2.03446       -3.91027
C          9.22978       -2.59898       -5.04436
C         10.71269       -2.26900       -4.83101
C         11.60969       -2.81683       -5.94251
N          6.27918       -3.46530       -4.07730
C          6.23479       -4.19196       -5.40117
C          5.60929       -3.27399       -6.43515
N          6.38461       -2.04850       -6.45972
C          6.23561       -1.23720       -5.24580
C          6.86688        0.13777       -5.52570
C          6.65062        1.26149       -4.50327
N          6.90691        2.54894       -5.14911
H          0.77669        0.16478        1.82614
H          0.48285       -1.13375        0.65636
H          0.55965        0.55305        0.11041
H          2.92732       -1.01837        1.32332
H          3.00064        0.65499        0.78078
H          2.45580       -0.07991       -1.56563
H          2.38369       -1.75582       -1.02351
H          4.80485       -1.62612       -0.31322
H          4.87177        0.04968       -0.85156
H          4.31669       -0.67289       -3.19247
H          4.23691       -2.34340       -2.65172
H          6.68609       -2.13356       -1.86437
H          6.72151       -0.50158       -2.47579
H          8.61554       -2.55335       -2.96761
H          8.65931       -0.98902       -3.73234
H          8.89268       -2.21158       -6.01557
H          9.12519       -3.69634       -5.10265
H         11.04370       -2.66346       -3.85545
H         10.82782       -1.17363       -4.76803
H         11.54506       -3.91288       -6.00833
H         12.66201       -2.55954       -5.76652
H         11.32673       -2.40725       -6.92321
H          5.31759       -3.41699       -3.70351
H          6.82448       -4.01126       -3.39718
H          5.65724       -5.11228       -5.24271
H          7.26402       -4.44194       -5.67591
H          4.53190       -3.11841       -6.19903
H          5.65972       -3.76802       -7.41424
H          6.16383       -1.48391       -7.27885
H          5.15745       -1.07272       -5.02948
H          6.41228        0.49677       -6.46349
H          7.94052        0.01550       -5.73829
H          7.26970        1.08883       -3.59964
H          5.59962        1.26351       -4.17260
H          7.89914        2.66552       -5.35988
H          6.64716        3.32110       -4.53611
