32

C          1.72031        1.15770       -0.17507
C          2.97428        0.80708        0.61992
S          4.02908       -0.26733       -0.43905
C          5.27941       -0.66102        0.66692
N          5.45139       -0.31527        1.93324
N          6.62037       -0.91335        2.34646
C          7.09455       -1.56949        1.32150
O          6.29742       -1.47360        0.20683
P          8.51234       -2.65040        1.34022
C          9.58724       -2.09496        2.73901
C         10.59786       -3.22672        2.96322
O         11.06294       -3.57809        1.65900
C         10.22350       -0.73896        2.38652
C          7.92538       -4.53945        1.35627
O          8.56707       -5.29538        0.68910
C          6.70769       -4.81265        2.17500
H          1.08899        1.81590        0.43607
H          1.13189        0.26483       -0.42433
H          1.95748        1.69239       -1.10431
H          2.74636        0.24933        1.53581
H          3.56455        1.69430        0.87976
H          9.16320       -2.49322        0.09717
H          8.91183       -1.99160        3.60304
H         10.11974       -4.08578        3.46609
H         11.41449       -2.86183        3.60870
H         11.62018       -4.37165        1.69754
H         10.89391       -0.82060        1.52169
H         10.81733       -0.40446        3.24812
H          9.46730        0.03021        2.18996
H          5.83054       -4.39877        1.65011
H          6.76053       -4.30575        3.14948
H          6.57756       -5.89384        2.29718
