100

C          0.73205       13.40443       -0.82065
C          2.25394       13.33570       -0.97175
C          2.73168       12.09444       -1.73374
C          4.25293       12.01814       -1.89743
C          4.72342       10.79743       -2.69524
C          6.24289       10.73382       -2.87989
C          6.70972        9.53939       -3.71888
C          8.22677        9.49898       -3.92733
C          8.69335        8.32653       -4.79795
C         10.21171        8.32049       -5.01926
C         10.66315        7.15926       -5.88452
O         12.10487        7.24517       -6.04427
C         12.64999        6.16488       -6.72343
N         14.10163        6.19303       -6.47170
C         15.02378        6.15604       -7.37608
C         16.39246        6.07370       -6.81219
C         16.14996        6.48982       -5.31944
C         14.64980        6.22216       -5.09011
C         17.04209        5.80270       -4.27104
O         18.41500        5.88633       -4.59381
C         19.12311        7.02528       -4.06860
C         20.56777        6.90574       -4.52566
C         21.49443        7.99172       -3.96730
C         22.93602        7.82215       -4.46218
C         23.92334        8.85656       -3.91302
C         25.34723        8.65442       -4.44293
C         26.36895        9.66046       -3.90353
C         27.77850        9.44751       -4.46577
C         28.81661       10.44321       -3.93923
C         30.22116       10.22334       -4.51267
C         31.25437       11.22604       -3.99308
C         16.98785        4.64670       -7.03717
C         17.22954        4.19325       -8.48666
C         18.21534        5.05433       -9.30580
S         17.35003        6.08205      -10.50829
O         16.80315        5.24380      -11.55189
O         16.49736        7.00966       -9.79079
O         18.56088        6.96211      -11.11535
H          0.42077       14.30751       -0.27787
H          0.34536       12.53522       -0.26797
H          0.23391       13.41892       -1.80164
H          2.72571       13.35446        0.02538
H          2.61404       14.23963       -1.49194
H          2.25707       12.07689       -2.73095
H          2.37306       11.18777       -1.21489
H          4.72894       12.01100       -0.90097
H          4.61154       12.93643       -2.39535
H          4.23747       10.80339       -3.68689
H          4.37585        9.87612       -2.19551
H          6.73196       10.70060       -1.89036
H          6.58989       11.66796       -3.35587
H          6.20826        9.56842       -4.70222
H          6.37938        8.60141       -3.23902
H          8.73143        9.44896       -2.94666
H          8.55600       10.44608       -4.38909
H          8.17865        8.37017       -5.77317
H          8.38205        7.37648       -4.33010
H         10.73299        8.26625       -4.04973
H         10.52504        9.26213       -5.49733
H         10.18744        7.19361       -6.88093
H         10.41507        6.18794       -5.41689
H         12.50220        6.20356       -7.81921
H         12.26924        5.19508       -6.34134
H         14.77327        6.15612       -8.43915
H         17.03679        6.80046       -7.32608
H         16.31462        7.57653       -5.26309
H         14.12644        6.99752       -4.52045
H         14.44170        5.24473       -4.62222
H         16.79604        4.72894       -4.21465
H         16.83528        6.23224       -3.27362
H         19.05099        7.02047       -2.96486
H         18.67082        7.96765       -4.43327
H         20.59130        6.92824       -5.62826
H         20.93879        5.91226       -4.22636
H         21.47802        7.96128       -2.86437
H         21.12134        8.99071       -4.25226
H         22.94515        7.86316       -5.56584
H         23.28930        6.81023       -4.19689
H         23.93051        8.80875       -2.81004
H         23.57596        9.87255       -4.17032
H         25.33344        8.70854       -5.54604
H         25.68272        7.63112       -4.19768
H         26.39989        9.59666       -2.80166
H         26.03278       10.68605       -4.13716
H         27.74215        9.50999       -5.56791
H         28.11042        8.41976       -4.23471
H         28.85921       10.38042       -2.83740
H         28.48673       11.47197       -4.16889
H         30.17500       10.27865       -5.61374
H         30.55170        9.19736       -4.27700
H         30.97223       12.25857       -4.24850
H         32.24899       11.03923       -4.42086
H         31.34867       11.17239       -2.89811
H         16.33773        3.90184       -6.55202
H         17.94013        4.63991       -6.48816
H         16.28565        4.07728       -9.04210
H         17.64652        3.17840       -8.43154
H         18.89924        4.43477       -9.89963
H         18.81965        5.73088       -8.68510
H         18.75239        6.63559      -12.01665
