76

C          6.45963      -10.57997       -3.10797
C          5.47590       -9.50321       -3.57291
C          4.97709       -8.62334       -2.42233
C          3.96760       -7.57269       -2.90267
N          3.59208       -6.58364       -1.87379
C          2.72176       -6.92350       -0.89414
S          1.91223       -8.38790       -0.83186
S          2.55151       -5.64274        0.36534
C          1.38389       -6.35153        1.56277
C         -0.03622       -5.78079        1.47178
C         -0.71916       -6.16596        0.15881
C         -2.07804       -5.55829       -0.06962
N         -2.61709       -4.98737        0.99037
N         -3.76122       -4.30253        0.87871
C         -4.33990       -4.05125       -0.31271
C         -3.83125       -4.61571       -1.45856
C         -2.70584       -5.47368       -1.38632
N         -2.23967       -6.10206       -2.48982
C         -1.47933       -7.36283       -2.47924
C         -2.70118       -5.68528       -3.81635
C         -4.18195       -3.61346        2.09680
C         -3.77034       -2.11734        2.00072
O         -3.70893       -1.60373        0.88059
N         -3.52433       -1.45009        3.15581
C         -3.63216       -2.03876        4.50067
C         -5.04906       -2.07442        5.08081
C         -3.18467       -0.01537        3.03971
C         -4.39825        0.91602        3.02827
C          4.19347       -5.24178       -1.97793
C          5.62299       -5.09421       -1.41885
C          6.74801       -5.37754       -2.42388
C          8.14104       -5.20047       -1.81623
H          6.80396      -11.19781       -3.94806
H          5.99631      -11.24979       -2.36882
H          7.34810      -10.13326       -2.63741
H          4.61371       -9.98055       -4.06875
H          5.95502       -8.86993       -4.33979
H          5.83124       -8.12388       -1.93904
H          4.50175       -9.24748       -1.65128
H          3.04869       -8.07255       -3.24436
H          4.38295       -7.00007       -3.74449
H          1.82461       -6.12955        2.54386
H          1.40324       -7.44218        1.39998
H         -0.01486       -4.68541        1.57986
H         -0.61331       -6.16338        2.32728
H         -0.76050       -7.26309        0.09642
H         -0.07341       -5.86026       -0.68149
H         -5.22132       -3.41543       -0.30654
H         -4.34492       -4.42174       -2.39564
H         -1.67165       -7.93013       -1.56600
H         -0.39655       -7.20678       -2.58451
H         -1.83092       -7.96803       -3.32370
H         -2.77656       -4.59314       -3.87628
H         -3.67306       -6.13640       -4.07667
H         -1.96086       -6.01438       -4.55379
H         -3.72957       -4.15474        2.93139
H         -5.27576       -3.67453        2.18483
H         -2.97959       -1.43987        5.15005
H         -3.19436       -3.04731        4.49129
H         -5.47752       -1.06769        5.15653
H         -5.02682       -2.50935        6.08918
H         -5.72979       -2.68383        4.47048
H         -2.61594        0.10245        2.10915
H         -2.51676        0.22087        3.87962
H         -5.07128        0.67032        2.19687
H         -4.06300        1.95325        2.89373
H         -4.96524        0.86866        3.96676
H          3.51704       -4.53849       -1.47442
H          4.17951       -4.97301       -3.04649
H          5.72640       -5.73470       -0.52830
H          5.72973       -4.05869       -1.05621
H          6.63209       -4.70096       -3.28771
H          6.65714       -6.39819       -2.82634
H          8.28528       -4.17876       -1.43504
H          8.92739       -5.39179       -2.55864
H          8.30225       -5.89264       -0.97672
