76

C          1.17509        1.41729       -0.30638
C          2.49662        0.73409        0.05070
C          3.37492        1.58270        0.97609
C          4.69643        0.89647        1.31884
N          5.43781        1.64180        2.33585
C          6.79055        1.72148        2.37709
O          7.53707        1.24597        1.51900
C          7.35878        2.45479        3.60163
C          8.78449        2.93223        3.34273
O          9.45932        3.21206        4.60760
C          9.49437        4.58767        4.76305
N          9.88062        5.07984        3.38537
C          8.99065        4.23576        2.47768
C          7.75734        5.04105        2.04475
C          7.21612        4.60006        0.67458
C          5.81964        5.15624        0.39242
N          5.44093        4.89980       -0.98719
C          4.10948        5.41630       -1.33748
C          3.78840        5.21228       -2.79828
C          3.72161        6.29031       -3.68767
C          3.41207        6.11214       -5.03799
C          3.16466        4.82639       -5.52250
C          3.23069        3.73131       -4.65978
C          3.54169        3.92612       -3.31161
O          3.62752        2.86796       -2.42755
C         11.35412        5.02341        3.13726
C         11.81513        6.49563        3.28848
O         10.90949        7.34842        3.39386
N         13.12313        6.78111        3.28127
C         14.18627        5.77385        3.12768
C         14.64279        5.59216        1.67973
C         13.53269        8.19780        3.41014
C         13.72957        8.61453        4.86720
H          0.56662        0.78709       -0.96889
H          1.34794        2.37522       -0.81702
H          0.57644        1.61965        0.59399
H          3.06090        0.50036       -0.86758
H          2.29518       -0.23741        0.53222
H          2.81570        1.78897        1.90688
H          3.57801        2.55871        0.50666
H          5.35138        0.81760        0.44055
H          4.51297       -0.13201        1.67590
H          4.90775        2.02596        3.11228
H          7.42327        1.72489        4.42380
H          6.69045        3.25819        3.94310
H          9.33255        2.10145        2.88183
H         10.24473        4.87150        5.51050
H          8.51804        5.04776        5.00128
H          9.71795        6.13225        3.30702
H          9.58639        3.98806        1.59044
H          8.03826        6.10503        1.97863
H          6.96615        4.98402        2.80799
H          7.19526        3.50295        0.60275
H          7.90022        4.94883       -0.11497
H          5.81282        6.25044        0.54493
H          5.10498        4.73602        1.14010
H          5.46575        3.89580       -1.17979
H          4.10465        6.49637       -1.12401
H          3.30677        4.96537       -0.71348
H          3.91476        7.29433       -3.30413
H          3.36360        6.97035       -5.70756
H          2.92062        4.66949       -6.57350
H          3.04422        2.72043       -5.03228
H          3.38826        2.05373       -2.89897
H         11.53914        4.65906        2.11871
H         11.82206        4.32727        3.84306
H         13.84596        4.81956        3.55165
H         15.02495        6.09943        3.75907
H         13.82846        5.22669        1.03958
H         15.46270        4.86365        1.63499
H         15.00955        6.53511        1.25352
H         12.75839        8.80950        2.93213
H         14.46089        8.31727        2.83525
H         12.78916        8.53591        5.42770
H         14.06375        9.65928        4.91165
H         14.49037        7.99942        5.36766
