61

C          4.51147        3.68881        3.44800
C          5.40872        2.73769        2.65337
C          5.83295        1.50262        3.45675
C          6.73698        0.55063        2.66571
C          7.12186       -0.68161        3.46527
O          7.97483       -1.50730        2.65097
C          8.27565       -2.74179        3.24275
C          9.02394       -3.55003        2.16223
C          9.24195       -4.96472        2.54433
N          8.62116       -6.05868        2.07182
C          7.61740       -6.18311        0.99747
C          6.26167       -6.67579        1.50358
C          5.55380       -5.70464        2.47271
C          5.39740       -4.36554        1.91790
C          5.30228       -3.26714        1.41762
N          9.05776       -7.19863        2.68471
C          9.95627       -6.78890        3.54306
N         10.10040       -5.42353        3.49554
C         11.08799       -4.65897        4.28121
O         12.26979       -5.38602        4.19533
C         13.32188       -4.89788        5.06855
C         14.50574       -5.83857        4.93567
C         15.70241       -5.41261        5.79556
C         16.88966       -6.37647        5.67112
C         18.09444       -5.96163        6.51817
H          4.22310        4.56147        2.84697
H          5.02131        4.06078        4.34885
H          3.58653        3.18964        3.77243
H          6.30936        3.27501        2.31226
H          4.88593        2.41245        1.73809
H          4.93095        0.96250        3.79407
H          6.35304        1.82764        4.37455
H          7.65454        1.07315        2.35125
H          6.22840        0.22938        1.74162
H          6.22495       -1.26321        3.75252
H          7.65607       -0.40206        4.39363
H          7.35435       -3.27864        3.54026
H          8.90305       -2.61847        4.15043
H          9.98995       -3.07036        1.94039
H          8.42420       -3.50564        1.24520
H          8.03952       -6.88710        0.26900
H          7.52386       -5.19979        0.52137
H          6.37927       -7.65664        1.98495
H          5.63475       -6.82583        0.61299
H          6.10626       -5.64842        3.42700
H          4.56604       -6.11794        2.72851
H          5.19956       -2.29049        0.99185
H         10.53987       -7.43099        4.19324
H         10.71936       -4.57050        5.32150
H         11.15880       -3.64751        3.84052
H         12.94293       -4.86811        6.10694
H         13.59037       -3.86847        4.76917
H         14.80270       -5.88352        3.87569
H         14.18403       -6.85405        5.21829
H         15.39658       -5.34646        6.85413
H         16.02504       -4.39758        5.50613
H         17.18808       -6.44657        4.61173
H         16.56381       -7.38931        5.96170
H         18.46871       -4.96985        6.22482
H         18.92257       -6.67394        6.40677
H         17.83749       -5.91691        7.58672
