97

C          0.54849        0.15688       -0.06162
C          2.06528        0.23507        0.12890
C          2.58991       -0.68422        1.23826
C          4.10799       -0.60583        1.42802
C          4.65785       -1.58757        2.46863
C          6.17705       -1.49243        2.64262
C          6.76970       -2.55903        3.57010
C          8.29293       -2.45453        3.69547
C          8.93559       -3.56933        4.52813
C         10.46498       -3.45355        4.56368
C         11.14718       -4.61323        5.30336
C         12.68909       -4.56436        5.39598
N         13.11255       -3.32599        6.12627
C         13.84031       -3.52203        7.16931
C         14.09974       -4.95279        7.42673
C         13.28041       -5.66875        6.32014
C         15.62254       -5.25304        7.40813
O         15.73555       -6.65095        7.47373
C         17.09849       -7.11450        7.36896
C         17.08625       -8.58882        7.00676
C         18.49982       -9.16000        6.84235
C         18.50509      -10.65032        6.48469
C         19.91065      -11.23029        6.29869
C         19.91830      -12.73080        5.98588
C         21.32548      -13.30311        5.79770
C         13.33241       -4.52800        3.99958
O         14.73076       -4.29003        4.12577
C         15.33741       -3.82039        2.94508
C         14.92673       -2.58023        2.44124
C         15.49502       -2.03258        1.28903
C         15.04804       -0.69836        0.75116
C         16.50147       -2.77663        0.65324
C         16.91709       -3.99686        1.17409
C         16.35810       -4.56431        2.33498
C         16.96249       -5.85846        2.86498
C         18.02931       -5.54162        3.93170
C         15.97222       -6.92723        3.35716
H          0.20925        0.82165       -0.86783
H          0.01418        0.44773        0.85509
H          0.23012       -0.86463       -0.31824
H          2.35600        1.27581        0.35182
H          2.56927       -0.02128       -0.81861
H          2.30391       -1.72640        1.01013
H          2.08668       -0.43566        2.18927
H          4.38810        0.42431        1.71078
H          4.60392       -0.79634        0.45958
H          4.38928       -2.61670        2.17168
H          4.16314       -1.41504        3.44042
H          6.44052       -0.48878        3.02028
H          6.65790       -1.57597        1.65159
H          6.50390       -3.56013        3.18799
H          6.30830       -2.48353        4.57005
H          8.55785       -1.47366        4.12855
H          8.73589       -2.46632        2.68378
H          8.65761       -4.54997        4.10554
H          8.53489       -3.55413        5.55598
H         10.72615       -2.48651        5.03348
H         10.82814       -3.39588        3.52551
H         10.89363       -5.56664        4.81173
H         10.75166       -4.68893        6.32941
H         12.87022       -2.39484        5.78156
H         14.21985       -2.67781        7.75065
H         13.74412       -5.21125        8.43926
H         12.47092       -6.25916        6.76458
H         13.92261       -6.35876        5.76318
H         16.10647       -4.75214        8.26991
H         16.07437       -4.85868        6.47741
H         17.61535       -6.93870        8.33075
H         17.62158       -6.52892        6.59334
H         16.51965       -8.71501        6.06996
H         16.54059       -9.14731        7.78411
H         19.07280       -9.00734        7.77309
H         19.03690       -8.59463        6.06016
H         17.91883      -10.80690        5.56209
H         17.97929      -11.21368        7.27519
H         20.50570      -11.04661        7.21058
H         20.42733      -10.68619        5.48801
H         19.31874      -12.91665        5.07847
H         19.40663      -13.27110        6.80047
H         21.84737      -12.81494        4.96099
H         21.29627      -14.38050        5.58606
H         21.93976      -13.15854        6.69884
H         12.86677       -3.75001        3.37745
H         13.13861       -5.50347        3.51563
H         14.15187       -2.01918        2.97054
H         14.31022       -0.22112        1.40873
H         14.59005       -0.80779       -0.24303
H         15.89739       -0.00988        0.63858
H         16.96763       -2.39117       -0.25516
H         17.71019       -4.54887        0.66490
H         17.49364       -6.29761        2.00475
H         17.57788       -5.04357        4.80221
H         18.80207       -4.87132        3.53306
H         18.52145       -6.46162        4.27958
H         15.54312       -6.67030        4.33381
H         16.49226       -7.88881        3.47090
H         15.15162       -7.07889        2.64205
