64

F          1.52425        2.32062       -1.29913
C          1.62602        1.44027       -0.20075
C          2.78263        0.48299       -0.43113
N          4.10616        1.10321       -0.35633
C          5.08715        0.67133        0.65013
C          6.38174        1.39696        0.22707
N          6.08713        1.72573       -1.19704
C          4.75474        1.64120       -1.42023
N          4.15012        2.00936       -2.54281
C          7.04755        2.50774       -1.98595
C          7.28104        2.04380       -3.42206
O          6.24174        2.56351       -4.24774
C          6.35519        2.21245       -5.63620
C          5.16227        2.81433       -6.35906
O          3.92384        2.28761       -5.86778
C          6.72308        2.62657        1.08524
C          5.66994        3.73916        1.14851
C          6.10726        4.89975        2.05068
C          5.08709        6.03945        2.13207
C          5.53946        7.18198        3.04696
C          4.53593        8.33458        3.14732
C          5.00697        9.46439        4.06820
C          4.01379       10.62364        4.18592
C          4.49063       11.74316        5.11650
C          3.49120       12.89486        5.23941
H          0.67835        0.88651       -0.13339
H          1.76828        2.05544        0.69906
H          2.65551       -0.01586       -1.40658
H          2.74152       -0.30086        0.33914
H          5.20051       -0.42485        0.61440
H          4.76729        0.95930        1.66071
H          7.23347        0.70136        0.25076
H          4.70944        2.30269       -3.36138
H          3.13591        2.07092       -2.56686
H          8.00282        2.43149       -1.45180
H          6.76515        3.57415       -2.00020
H          7.32105        0.94020       -3.48120
H          8.25563        2.44060       -3.75939
H          6.36990        1.11211       -5.74567
H          7.29689        2.62035       -6.04809
H          5.27703        2.65450       -7.44260
H          5.13913        3.90019       -6.18086
H          3.64703        1.55681       -6.44022
H          7.68133        3.04808        0.73989
H          6.92695        2.24695        2.10061
H          4.71123        3.33855        1.52014
H          5.46513        4.12747        0.13579
H          7.06994        5.29866        1.68637
H          6.30488        4.51365        3.06549
H          4.12161        5.64277        2.49274
H          4.89492        6.43429        1.11891
H          6.50668        7.57351        2.68604
H          5.73402        6.78124        4.05708
H          3.56813        7.94670        3.51103
H          4.34093        8.74057        2.13923
H          5.97487        9.85056        3.70282
H          5.20629        9.05340        5.07343
H          3.04386       10.23897        4.54797
H          3.81778       11.04259        3.18310
H          5.45681       12.13022        4.75080
H          4.69274       11.32103        6.11529
H          3.29552       13.35901        4.26130
H          3.86229       13.68045        5.91151
H          2.52720       12.54420        5.63724
