66

C          0.82936       -0.42540        0.62934
C          2.35079       -0.29615        0.53285
C          2.85324        1.12828        0.78798
C          4.37573        1.26490        0.70240
C          4.88200        2.68648        0.96319
C          6.40656        2.80887        0.89315
C          6.92695        4.21992        1.18135
C          8.45277        4.32180        1.11118
C          8.98823        5.72992        1.39011
C         10.51758        5.80003        1.30496
C         11.04601        7.20742        1.50644
O         12.49218        7.17323        1.36364
C         13.08415        8.42353        1.40414
N         14.55452        8.23212        1.08585
C         14.73946        7.54934       -0.26057
C         14.09091        8.27928       -1.43626
C         14.63724        7.76429       -2.77508
C         16.09415        8.16754       -2.99748
O         16.75952        8.76135       -2.17658
O         16.63760        7.81946       -4.18666
C         15.23320        7.40714        2.18191
C         15.47215        8.38492        3.32868
C         15.59576        9.80475        2.66754
C         15.26725        9.56806        1.17420
N         16.85466       10.51964        2.74859
H          0.49928       -1.45625        0.44173
H          0.32761        0.22391       -0.10345
H          0.46864       -0.13665        1.62779
H          2.68785       -0.62560       -0.46457
H          2.82641       -0.98156        1.25467
H          2.51261        1.46072        1.78455
H          2.38250        1.81553        0.06290
H          4.71677        0.93335       -0.29425
H          4.84366        0.57516        1.42688
H          4.53456        3.02089        1.95646
H          4.42511        3.37792        0.23354
H          6.75258        2.49006       -0.10589
H          6.86037        2.10225        1.61014
H          6.58399        4.54001        2.18059
H          6.47931        4.92983        0.46387
H          8.79397        3.99660        0.11276
H          8.89940        3.61363        1.83051
H          8.65516        6.05982        2.38866
H          8.54478        6.43701        0.66778
H         10.85028        5.43661        0.31905
H         10.96731        5.13491        2.05908
H         10.79189        7.59777        2.50806
H         10.63072        7.89973        0.75082
H         13.02255        8.90342        2.39799
H         12.67931        9.11742        0.64510
H         14.33036        6.53803       -0.14801
H         15.82536        7.49660       -0.40109
H         14.29892        9.35698       -1.38195
H         13.00135        8.13934       -1.42154
H         14.02962        8.16841       -3.59963
H         14.55666        6.66648       -2.84848
H         15.98773        7.36576       -4.75297
H         16.17321        7.04947        1.74253
H         14.59399        6.54789        2.40931
H         16.39019        8.12814        3.87108
H         14.65058        8.35722        4.05680
H         14.83700       10.46530        3.11071
H         16.18796        9.47945        0.58189
H         14.64592       10.35262        0.72994
H         17.65764        9.93671        2.50758
H         17.01384       10.91501        3.67380
