53

C          1.47061       -4.16284        7.73404
C          2.97419       -3.95860        7.54195
C          3.29980       -2.84950        6.53493
C          4.80707       -2.65073        6.33008
C          5.10806       -1.50893        5.37695
O          6.54291       -1.39269        5.22026
C          6.94625       -0.30013        4.42333
C          8.44915       -0.36880        4.29143
N          9.02424       -1.52182        4.75623
C         10.33351       -1.79230        4.69506
C         11.22921       -0.86962        4.13584
C         10.67780        0.39585        3.70728
C          9.27487        0.59923        3.77465
C         11.56371        1.40098        3.26018
C         12.92133        1.16819        3.27966
C         13.49002       -0.07401        3.67887
C         12.64752       -1.12294        4.06607
C         13.19681       -2.45301        4.39728
C         12.73900       -3.62622        3.93356
C         14.99611       -0.18772        3.63806
C         15.67860        0.58870        4.78650
C         15.46860       -0.03003        6.17188
C         15.75973        0.96505        7.29595
O         15.64383        2.16042        7.17904
O         16.11472        0.42611        8.49667
H          1.26566       -4.95613        8.46490
H          0.98284       -4.44571        6.78996
H          0.98676       -3.24389        8.09608
H          3.43715       -4.90165        7.20626
H          3.44277       -3.71575        8.51021
H          2.84623       -1.90459        6.88046
H          2.82248       -3.08382        5.56795
H          5.25396       -3.57834        5.93652
H          5.29067       -2.44447        7.29840
H          4.71686       -0.55370        5.77070
H          4.65516       -1.68274        4.38394
H          6.65710        0.66737        4.87649
H          6.48532       -0.34363        3.41569
H          8.35828       -2.17335        5.19214
H         10.65838       -2.73866        5.12249
H          8.84960        1.54299        3.43124
H         11.16642        2.35742        2.91879
H         13.59955        1.96010        2.95484
H         14.08072       -2.46325        5.04015
H         11.90732       -3.69198        3.22931
H         13.22082       -4.56339        4.21120
H         15.34475        0.23913        2.68498
H         15.31430       -1.23876        3.63581
H         15.30984        1.62478        4.81704
H         16.75548        0.65338        4.57482
H         16.06920       -0.94628        6.29229
H         14.41244       -0.32294        6.31049
H         16.20636       -0.53993        8.42229
