67

C          4.83023        4.43030        2.23112
C          5.42795        3.19763        1.55017
C          5.91159        3.47472        0.12316
C          6.49409        2.24313       -0.57581
C          6.95646        2.51867       -2.01000
C          7.49588        1.27529       -2.72238
C          7.92794        1.54341       -4.16911
C          8.40137        0.27240       -4.88051
C          8.66201        0.39143       -6.38459
C          9.04459       -0.97635       -7.02535
N         10.40142       -0.74479       -7.52081
C         10.78281        0.51320       -7.34182
N         11.98767        1.01083       -7.72058
C         12.98905        0.23947       -8.35939
O         12.79933       -0.93454       -8.63737
C         14.24904        0.99868       -8.66502
N          9.84066        1.25874       -6.72089
C          9.68800        2.70901       -6.86844
C         10.77859        3.55157       -6.19472
O         11.97368        3.27668       -6.24966
O         10.26299        4.62275       -5.61610
C         11.20937        5.61469       -5.04862
C         11.68400        6.59919       -6.10420
C         10.57053        7.42808       -6.75329
C         11.09856        8.44336       -7.77151
C          9.98960        9.25424       -8.44931
C         10.52111       10.27183       -9.46056
H          4.48839        4.20136        3.24932
H          3.96681        4.81565        1.66898
H          5.56812        5.24305        2.30261
H          4.67882        2.38844        1.52675
H          6.26989        2.81397        2.15055
H          6.66999        4.27711        0.14503
H          5.07061        3.86841       -0.47455
H          5.73683        1.43986       -0.58776
H          7.34182        1.85252        0.01379
H          7.73266        3.30415       -2.00079
H          6.11210        2.93063       -2.59036
H          6.72109        0.48925       -2.71883
H          8.34933        0.86469       -2.15590
H          8.72524        2.30529       -4.16588
H          7.07701        1.97934       -4.72270
H          7.62558       -0.50455       -4.76716
H          9.30813       -0.12651       -4.39521
H          7.77970        0.81936       -6.88608
H          8.37721       -1.26985       -7.84755
H          9.04580       -1.77594       -6.27184
H         11.06319       -1.41170       -7.92981
H         12.21260        1.93971       -7.29884
H         14.53188        1.67314       -7.84588
H         14.09244        1.61291       -9.56504
H         15.05441        0.28606       -8.86545
H          8.71312        2.98558       -6.45765
H          9.68919        2.99112       -7.93746
H         12.04022        5.06115       -4.59468
H         10.61079        6.10262       -4.26993
H         12.26665        6.06325       -6.87083
H         12.40000        7.26774       -5.59679
H         10.00512        7.95719       -5.96668
H          9.84762        6.75887       -7.24967
H         11.68878        7.91742       -8.54272
H         11.80081        9.13157       -7.27032
H          9.39865        9.77416       -7.67706
H          9.29161        8.56302       -8.95151
H         11.19379       10.99656       -8.97952
H          9.70358       10.83646       -9.92806
H         11.08658        9.77777      -10.26453
