31

N          3.08135       -2.77705       -0.53293
C          2.30133       -1.77471       -1.27339
C          2.94163       -0.38187       -1.17465
C          4.47631       -0.35983       -1.31516
P          5.14173       -1.26305       -2.73004
N          4.60992       -0.62050       -4.18220
N          5.00190        0.73074       -4.31538
N          4.36151       -1.36928       -5.34393
C          6.95024       -1.44487       -2.59250
C          7.45498       -2.15017       -1.31134
C          6.91154       -3.56383       -1.14005
Br         7.69816       -4.40580        0.44006
H          2.66866       -3.70320       -0.65463
H          3.04226       -2.59029        0.47177
H          1.24791       -1.69158       -0.95267
H          2.26764       -2.09621       -2.32827
H          2.71434        0.06320       -0.19400
H          2.48208        0.27796       -1.92357
H          4.95811       -0.82983       -0.44410
H          4.85935        0.66840       -1.39461
H          4.59115       -2.55949       -2.75345
H          4.20386        1.27576       -4.65089
H          5.75586        0.81626       -5.00356
H          3.45970       -1.84294       -5.30340
H          5.11278       -2.01286       -5.59745
H          7.37238       -0.43051       -2.66449
H          7.26913       -1.99583       -3.49280
H          7.21389       -1.54672       -0.42455
H          8.55223       -2.18248       -1.36949
H          7.16874       -4.21242       -1.98642
H          5.82719       -3.58788       -0.96973
