97

C          0.65265       -0.45376        0.25774
C          2.18100       -0.36284        0.25484
C          2.72386        0.73193       -0.67055
C          4.25211        0.83954       -0.66789
C          4.79249        1.95761       -1.56527
C          6.31955        2.07768       -1.54600
C          6.85616        3.24168       -2.38509
C          8.38326        3.35607       -2.36802
C          8.92035        4.58199       -3.11306
C         10.44945        4.66217       -3.12403
C         11.00400        5.92392       -3.79227
C         12.53318        5.93927       -3.86309
C         13.12461        7.21037       -4.47921
C         14.64312        7.12957       -4.65226
C         15.28206        8.39049       -5.24257
C         16.73947        8.16488       -5.65017
C         17.41987        9.38876       -6.27906
C         18.68686        8.96818       -7.03452
C         19.49052       10.02180       -7.82157
C         20.70894        9.31901       -8.45309
O         21.46111       10.31795       -9.12532
C         22.40999        9.82885      -10.06239
O         22.70311       10.93381      -10.85982
C         23.82283       10.72660      -11.72858
C         24.10411       12.05163      -12.43698
O         25.16014       11.92123      -13.38052
C         19.99363       11.16994       -6.89007
N         19.33624       12.37479       -7.41604
C         18.67850       12.18609       -8.51136
C         18.72223       10.79526       -8.98111
C         17.34823       10.33186       -9.51198
C         17.36376        8.86023       -9.90966
O         18.28633        8.32727      -10.49583
O         16.23135        8.26455       -9.51203
C         16.09760        6.83122       -9.78879
C         14.88115        6.33408       -9.02925
C         14.64925        4.83650       -9.25090
H          0.29618       -1.24342        0.93363
H          0.26324       -0.67620       -0.74706
H          0.19721        0.49316        0.58455
H          2.60810       -1.33537       -0.04360
H          2.54087       -0.17890        1.28150
H          2.29024        1.70404       -0.37533
H          2.37117        0.54680       -1.70076
H          4.68768       -0.12551       -0.98211
H          4.60282        1.00450        0.36636
H          4.34919        2.91952       -1.25195
H          4.45123        1.79350       -2.60267
H          6.76619        1.13200       -1.90098
H          6.66149        2.19778       -0.50266
H          6.41669        4.18542       -2.01608
H          6.50845        3.13592       -3.42790
H          8.82350        2.44092       -2.80210
H          8.73380        3.38962       -1.32120
H          8.50825        5.49666       -2.65135
H          8.54711        4.57521       -4.15257
H         10.85580        3.77101       -3.63468
H         10.82450        4.60921       -2.08664
H         10.64922        6.81482       -3.24491
H         10.59079        6.01255       -4.81276
H         12.87423        5.06408       -4.44450
H         12.94758        5.80303       -2.84876
H         12.86421        8.08160       -3.85324
H         12.65770        7.39494       -5.46323
H         14.87834        6.26963       -5.30514
H         15.11501        6.90161       -3.68094
H         15.20952        9.22160       -4.52029
H         14.71047        8.70880       -6.13285
H         16.76864        7.33844       -6.38140
H         17.32682        7.81758       -4.78367
H         17.64816       10.13044       -5.49458
H         16.69980        9.87187       -6.95526
H         18.43059        8.14760       -7.72103
H         19.38784        8.51549       -6.31139
H         20.36050        8.54544       -9.15793
H         21.31063        8.83028       -7.66391
H         21.95930        8.99799      -10.64843
H         23.31850        9.45956       -9.53791
H         23.60390        9.94207      -12.47502
H         24.70554       10.40562      -11.14129
H         24.30642       12.83844      -11.68946
H         23.21458       12.35501      -13.00756
H         26.00686       11.91418      -12.90828
H         21.08087       11.31637       -6.97238
H         19.72265       11.04323       -5.83353
H         19.43845       13.29188       -6.97734
H         18.16936       13.01939       -9.00236
H         19.42376       10.80926       -9.84619
H         17.11575       10.90515      -10.42402
H         16.53685       10.51339       -8.79958
H         17.02598        6.33292       -9.47220
H         15.99569        6.70010      -10.87629
H         13.99853        6.90707       -9.35195
H         15.01751        6.54279       -7.95658
H         14.48020        4.60684      -10.31240
H         13.76698        4.49649       -8.69463
H         15.50692        4.23841       -8.91113
