81

C          0.41289        1.58514       -5.19277
C          1.79185        1.00086       -4.87637
C          2.68028        1.94799       -4.06102
C          4.05478        1.35764       -3.72979
C          4.95178        2.32070       -2.94271
C          6.29443        1.73914       -2.54312
O          7.04427        1.44616       -3.75757
C          8.29636        0.90353       -3.48545
N          8.85101        0.46977       -4.77975
N          8.86288       -0.78304       -5.17895
N          9.26500       -0.81217       -6.43207
C          9.49089        0.45757       -6.83131
N          9.22568        1.28435       -5.79838
C          9.38287        2.74040       -5.64843
C         10.70936        3.10813       -4.97169
C         10.80124        4.63662       -4.82254
S         11.73225        5.17278       -3.36693
C         10.49980        4.99547       -2.07075
S          8.95928        4.38420       -2.36283
N         10.92581        5.41003       -0.86410
C         10.03937        5.34966        0.31193
C          9.21940        6.63119        0.50196
C          8.28870        6.54131        1.71651
C          7.50843        7.83457        1.96486
C         12.27026        5.96118       -0.62588
C         13.28932        4.90947       -0.16908
C         14.66765        5.52484        0.09774
C         15.69858        4.49586        0.56657
C          9.94002        0.82776       -8.20195
C         11.32667        1.49244       -8.24120
O         12.15262        0.79228       -7.33628
C         13.53212        1.19521       -7.38754
C         14.30207        0.38201       -6.36701
H         -0.19580        0.88259       -5.77789
H          0.49550        2.51581       -5.77342
H         -0.14329        1.81847       -4.27302
H          2.30756        0.74088       -5.81663
H          1.67324        0.05212       -4.32602
H          2.16226        2.21808       -3.12393
H          2.81028        2.89431       -4.61579
H          4.56177        1.06334       -4.66328
H          3.92335        0.42831       -3.14807
H          4.44827        2.62764       -2.01088
H          5.12184        3.24693       -3.51590
H          6.17068        0.79675       -1.97781
H          6.87401        2.44791       -1.92776
H          8.26293       -0.02306       -2.88562
H          8.98819        1.63593       -3.02451
H          8.53455        3.10395       -5.05104
H          9.29685        3.15566       -6.66073
H         11.56043        2.70687       -5.53772
H         10.73251        2.64933       -3.97472
H          9.80221        5.08853       -4.73813
H         11.32800        5.09734       -5.67023
H         10.68031        5.16620        1.18740
H          9.37539        4.48463        0.18523
H          8.62980        6.81413       -0.41010
H          9.89961        7.49172        0.61807
H          8.87857        6.28933        2.61421
H          7.58481        5.70499        1.57036
H          8.18548        8.67905        2.15915
H          6.84243        7.73732        2.83239
H          6.88742        8.10017        1.09678
H         12.16348        6.74658        0.13737
H         12.61426        6.46820       -1.53974
H         13.37009        4.12418       -0.93790
H         12.92009        4.41559        0.74483
H         14.57051        6.32149        0.85419
H         15.02886        6.02029       -0.81898
H         15.37941        4.00275        1.49612
H         16.67093        4.96778        0.75881
H         15.85412        3.71238       -0.18946
H          9.19503        1.48284       -8.68028
H          9.95899       -0.11591       -8.76149
H         11.26635        2.56785       -7.97501
H         11.71269        1.44012       -9.27573
H         13.60765        2.28002       -7.17568
H         13.92061        1.02864       -8.40892
H         13.92398        0.56213       -5.35148
H         15.36441        0.65820       -6.39013
H         14.22166       -0.69110       -6.58282
