86

C          1.34459        1.08124       14.70891
C          2.25109       -0.13475       14.50319
C          3.29731        0.06943       13.40218
C          4.23167       -1.12829       13.20478
C          5.29229       -0.89869       12.12412
C          6.27484       -2.06197       11.95442
C          7.37630       -1.76652       10.93252
C          8.43221       -2.86941       10.80168
C          9.57833       -2.47054        9.86778
C         10.72354       -3.48672        9.79106
C         11.91454       -2.94211        8.99345
C         13.10812       -3.88723        8.95235
O         14.25885       -3.27373        8.30868
C         14.99668       -2.41890        9.12593
N         16.03375       -3.12141        9.91446
C         17.02297       -3.91339        9.44182
N         17.55395       -3.82021        8.22297
C         17.34493       -2.82431        7.17193
C         18.34320       -3.07313        6.03927
O         18.07722       -4.31847        5.32792
C         18.67019       -5.45080        5.76398
O         19.17557       -5.57012        6.87729
C         18.58840       -6.55664        4.74886
S         17.02929       -7.49452        4.99009
C         18.24108       -1.97084        4.98147
O         19.03267       -2.28251        3.82622
C         20.38682       -2.15731        3.97835
O         20.91393       -1.70379        4.97246
C         21.10748       -2.71853        2.77759
S         21.41502       -4.50809        3.04338
N         17.54084       -4.86012       10.26247
C         16.85114       -5.51053       11.37956
C         17.23975       -4.95500       12.75659
C         16.61723       -5.78967       13.87938
S         17.03285       -5.06809       15.48253
O         18.45277       -5.22429       15.71584
O         16.38137       -3.78534       15.56301
O         16.23863       -6.07106       16.47653
H          0.60280        0.90365       15.49959
H          0.79574        1.33153       13.78873
H          1.92802        1.96935       14.99513
H          1.63576       -1.01756       14.25999
H          2.76404       -0.37685       15.44955
H          3.90105        0.96403       13.63819
H          2.78552        0.29652       12.45018
H          3.63547       -2.02284       12.95247
H          4.73252       -1.36007       14.16148
H          5.86074        0.01662       12.36769
H          4.79555       -0.69442       11.15936
H          5.72606       -2.97326       11.65927
H          6.73814       -2.29063       12.93060
H          7.88036       -0.82537       11.21607
H          6.92107       -1.57564        9.94495
H          7.96127       -3.80145       10.44453
H          8.84223       -3.09908       11.80117
H          9.98817       -1.50306       10.20862
H          9.18389       -2.28729        8.85356
H         10.36407       -4.42854        9.34304
H         11.05293       -3.74031       10.81443
H         12.22239       -1.98215        9.44353
H         11.61264       -2.71227        7.95960
H         12.89432       -4.78224        8.35285
H         13.38748       -4.22886        9.96701
H         14.38198       -1.88936        9.87030
H         15.46517       -1.66985        8.47881
H         15.85177       -3.21249       10.90787
H         18.20610       -4.57644        7.93401
H         17.52037       -1.80958        7.56166
H         16.31670       -2.88876        6.77948
H         19.36698       -3.12140        6.43819
H         19.45480       -7.21758        4.85326
H         18.55052       -6.15002        3.73324
H         17.44185       -8.16957        6.08896
H         18.56108       -1.01392        5.41860
H         17.21456       -1.88813        4.60163
H         22.05369       -2.19138        2.62066
H         20.48726       -2.65974        1.87585
H         22.33042       -4.35049        4.02880
H         18.41628       -5.27613        9.95999
H         17.09879       -6.58091       11.32326
H         15.76535       -5.43831       11.21071
H         16.91936       -3.90571       12.85657
H         18.33537       -4.95966       12.85545
H         16.99601       -6.82138       13.88675
H         15.51897       -5.81171       13.83372
H         16.90458       -6.60686       16.95013
