108

N          2.16649       -0.01314        1.59171
C          2.91675        0.02458        0.46673
N          3.48767       -1.09434        0.00425
C          4.32897       -1.07926       -1.20111
C          5.12341        0.24487       -1.31237
C          4.04422        1.36509       -1.30920
N          3.12238        1.17404       -0.16828
C          4.53145        2.83013       -1.26915
C          3.37100        3.79915       -1.20672
C          2.57249        4.05091       -2.33481
C          1.46974        4.90185       -2.24931
C          1.14436        5.51385       -1.03375
C          1.93357        5.27909        0.09341
C          3.03975        4.42594        0.00664
C          5.90387        0.22952       -2.65268
C          5.08744        0.20793       -3.95357
C          5.95561       -0.02997       -5.19459
C          5.13673       -0.06744       -6.48860
C          5.97167       -0.31702       -7.74807
C          5.13133       -0.35509       -9.02861
C          5.95407       -0.56586      -10.30328
C          5.10320       -0.59656      -11.57735
C          5.92441       -0.73819      -12.86284
C          5.06710       -0.79253      -14.13180
C          5.88908       -0.89689      -15.41949
C          5.00723       -0.97568      -16.67366
N          5.76485       -1.08155      -17.91195
C          6.24342       -0.01960      -18.64887
C          6.99540       -0.52241      -19.69582
C          6.97796       -1.94082      -19.58493
C          6.21610       -2.25660      -18.47385
C          6.08685        0.31904       -0.08735
C          7.32853        1.22553       -0.15701
C          7.96916        1.30051        1.23292
S          9.36518        2.46124        1.20690
C          9.75244        2.56208        2.95727
S          8.92106        1.74804        4.13795
N         10.82793        3.37653        3.18916
C         11.39331        4.22423        2.16692
C         12.66802        3.94429        1.66132
C         13.22934        4.78958        0.70318
C         12.52359        5.90984        0.25367
C         11.25360        6.18921        0.76717
C         10.68668        5.35151        1.72813
C         11.45868        3.43771        4.48817
C         11.41237        4.62740        5.21874
C         12.06515        4.70273        6.45126
C         12.76125        3.59791        6.94714
C         12.80978        2.41318        6.20503
C         12.16179        2.33026        4.97329
H          1.78203       -0.88922        1.92205
H          1.73069        0.83118        1.94031
H          3.48870       -1.91560        0.59741
H          3.69210       -1.23931       -2.08273
H          5.02012       -1.92802       -1.12824
H          3.44274        1.24586       -2.22481
H          2.60061        2.00502        0.11602
H          5.13781        3.00970       -2.16812
H          5.17997        2.98532       -0.39739
H          2.82357        3.58787       -3.29229
H          0.86501        5.09607       -3.13569
H          0.28616        6.18329       -0.97125
H          1.70005        5.77187        1.03785
H          3.67632        4.27276        0.88206
H          6.56665       -0.65270       -2.63148
H          6.58065        1.09604       -2.67747
H          4.54695        1.16091       -4.08302
H          4.31315       -0.57727       -3.92421
H          6.50418       -0.98056       -5.07698
H          6.72528        0.75780       -5.26373
H          4.58805        0.88465       -6.59998
H          4.36346       -0.85187       -6.40463
H          6.52238       -1.26788       -7.64104
H          6.74119        0.46948       -7.83806
H          4.56222        0.58728       -9.11703
H          4.37543       -1.15587       -8.94433
H          6.52514       -1.50712      -10.22096
H          6.70712        0.23733      -10.38659
H          4.49927        0.32651      -11.63261
H          4.37803       -1.42678      -11.51161
H          6.54535       -1.64905      -12.80363
H          6.63282        0.10523      -12.93682
H          4.42699        0.10649      -14.17679
H          4.37550       -1.65118      -14.06601
H          6.53639       -1.78826      -15.38431
H          6.56216       -0.02899      -15.51094
H          4.36498       -0.08424      -16.74399
H          4.33571       -1.84592      -16.61119
H          5.99982        1.00125      -18.37185
H          7.48866        0.06629      -20.46265
H          7.45584       -2.65274      -20.25030
H          5.94899       -3.21589      -18.04185
H          6.43971       -0.70492        0.11961
H          5.50957        0.60914        0.80617
H          7.07623        2.24085       -0.49312
H          8.05152        0.83011       -0.88551
H          8.32700        0.31681        1.56922
H          7.25599        1.65833        1.98997
H         13.20965        3.07019        2.02358
H         14.22208        4.57284        0.30782
H         12.96705        6.57060       -0.49179
H         10.70677        7.06994        0.42845
H          9.70175        5.56259        2.14531
H         10.86749        5.48546        4.82463
H         12.02665        5.62886        7.02557
H         13.27019        3.66061        7.90930
H         13.35809        1.55069        6.58517
H         12.19007        1.41062        4.38900
