49

C          1.04435       -0.65221       -0.51297
C          2.07124       -0.06136       -0.25883
C          3.37845        0.45687        0.15003
C          4.19745       -0.79780        0.12813
N          5.04496       -0.79341       -0.84264
C          5.07155        0.45907       -1.62722
C          4.22022        1.44548       -0.77131
C          5.17557        2.23857        0.16945
C          6.06165        1.41531        1.12078
C          6.94113        2.25205        2.05378
C          6.20701        3.24103        3.02734
Br         4.70706        2.38251        3.98199
F          7.05426        3.75555        3.92694
F          5.70480        4.27701        2.30733
Br         8.03763        1.02021        3.12748
F          7.79077        3.03608        1.30454
C          3.34604        2.43346       -1.66149
C          2.11636        3.04657       -0.90823
C          2.15999        3.70538        0.49258
C          2.87898        5.06129        0.54468
C          0.71018        3.86964        0.97969
C          4.22811        3.57222       -2.21984
O          5.36112        2.99970       -2.89199
C          2.75310        1.70295       -2.89445
H          0.10931       -1.11593       -0.75839
H          3.28665        0.86722        1.16949
H          4.06541       -1.66238        0.78083
H          5.63242       -1.59783       -1.07359
H          4.65367        0.24258       -2.61803
H          6.10705        0.79187       -1.76591
H          4.56398        2.93016        0.75473
H          5.83364        2.84700       -0.46322
H          6.77461        0.78826        0.56552
H          5.47859        0.74807        1.77126
H          1.35677        2.25309       -0.86431
H          1.69290        3.79359       -1.60168
H          2.65044        3.02708        1.21366
H          2.77558        5.51288        1.54047
H          2.44112        5.76085       -0.18328
H          3.95419        4.99789        0.33649
H          0.14362        4.53688        0.31241
H          0.68179        4.30729        1.98636
H          0.18362        2.90528        1.01376
H          4.56082        4.26048       -1.43003
H          3.60912        4.15298       -2.92403
H          5.83213        3.70304       -3.36353
H          2.28028        0.74722       -2.63860
H          3.50823        1.53340       -3.67251
H          1.97395        2.33367       -3.34212
