49

I          1.39691       -0.67454       -0.10406
N          3.38291       -0.18149       -0.14752
C          3.87561        1.06404        0.07215
N          3.07718        2.03214        0.55414
C          3.57068        3.40421        0.76112
O          4.63380        3.62562       -0.15663
C          5.66702        2.70233        0.03703
N          5.17573        1.31531       -0.14108
C          6.12500        0.31341       -0.65440
C          6.09578        0.16129       -2.19074
C          7.10794       -0.86327       -2.64878
C          6.77535       -2.22503       -2.68308
C          7.71914       -3.17883       -3.06850
C          9.00978       -2.77929       -3.42605
C          9.35104       -1.42487       -3.39642
C          8.40550       -0.47313       -3.00853
C          2.46196        4.40656        0.49246
C          2.91162        5.83271        0.82787
C          1.81477        6.90283        0.76871
C          1.61810        7.69163       -0.58096
C          1.17494        6.94629       -1.89794
C         -0.21175        6.20488       -1.92885
F         -1.19833        6.98540       -1.47633
F         -0.47670        5.84472       -3.19534
F         -0.16524        5.07667       -1.17728
F          1.14535        7.88219       -2.87356
F          2.13573        6.02254       -2.21788
F          0.72305        8.68251       -0.35578
F          2.82641        8.25585       -0.88048
F          0.59748        6.39108        1.14622
F          2.13600        7.87738        1.67713
H          3.94049       -0.80878       -0.71869
H          2.07175        1.86672        0.52207
H          3.95705        3.49002        1.79489
H          6.12191        2.79919        1.04062
H          6.42129        2.89605       -0.73570
H          5.94697       -0.64795       -0.14927
H          7.12606        0.63022       -0.32961
H          6.30048        1.13906       -2.65212
H          5.08613       -0.13051       -2.52394
H          5.76267       -2.54680       -2.42333
H          7.44422       -4.23330       -3.10055
H          9.74522       -3.52248       -3.73422
H         10.35314       -1.10663       -3.68469
H          8.67602        0.58535       -3.00090
H          1.59493        4.13739        1.11435
H          2.16516        4.30663       -0.55908
H          3.74268        6.14935        0.18458
H          3.27608        5.86964        1.86566
