116

C          0.86383       -0.01608        0.88902
C          2.36522        0.08532        0.60936
C          2.83172       -0.80418       -0.54837
C          4.32751       -0.67937       -0.85289
C          4.80669       -1.57416       -2.00064
C          6.28732       -1.37913       -2.34190
C          6.79161       -2.26869       -3.48343
C          8.25099       -1.99062       -3.85731
C          8.78982       -2.86112       -4.99813
C         10.22411       -2.49464       -5.39132
C         10.82490       -3.35844       -6.50628
C         12.22723       -2.88865       -6.90565
C         12.92370       -3.76518       -7.95484
C         14.30837       -3.20475       -8.29946
C         15.17075       -3.98497       -9.30500
C         16.51540       -3.27869       -9.52530
O         17.26123       -4.00732      -10.46968
C         18.51501       -3.38103      -10.81105
C         19.17481       -4.17816      -11.92138
C         20.50553       -3.56150      -12.37110
C         21.12900       -4.29099      -13.56571
C         22.43305       -3.65509      -14.05804
C         23.00218       -4.32803      -15.31110
C         24.28129       -3.66972      -15.83822
C         24.81536       -4.31572      -17.12088
C         26.08038       -3.64818      -17.66933
C         26.59832       -4.28562      -18.96386
C         27.85656       -3.60947      -19.51387
S         15.54289       -5.69632       -8.60080
C         14.62347       -6.44911       -9.78772
N         14.12618       -5.69810      -10.74040
C         14.47278       -4.26863      -10.66246
C         13.33602       -6.21829      -11.86046
O         12.10291       -5.54569      -11.82514
C         11.20832       -5.92367      -12.85661
C         10.64175       -7.19866      -12.79409
C          9.71104       -7.62156      -13.74871
C          9.08832       -8.99148      -13.68209
C          9.36713       -6.71195      -14.76099
C          9.92687       -5.43786      -14.79771
C         10.86703       -4.99471      -13.85039
C         11.41628       -3.57856      -13.95251
C         11.05781       -2.70405      -12.73616
C         12.92144       -3.53139      -14.27580
H          0.56439        0.62970        1.72605
H          0.57231       -1.04622        1.14362
H          0.27329        0.28504        0.01045
H          2.92921       -0.18039        1.51979
H          2.62856        1.13392        0.38839
H          2.25352       -0.55316       -1.45558
H          2.58874       -1.85716       -0.31964
H          4.90698       -0.91367        0.05758
H          4.56045        0.37331       -1.09305
H          4.19713       -1.37284       -2.89923
H          4.62278       -2.63203       -1.74286
H          6.89769       -1.56380       -1.44033
H          6.45824       -0.32065       -2.60689
H          6.15302       -2.12059       -4.37211
H          6.67679       -3.33000       -3.20167
H          8.88826       -2.12738       -2.96581
H          8.35269       -0.92707       -4.13705
H          8.13146       -2.76199       -5.87901
H          8.74505       -3.92438       -4.70374
H         10.87263       -2.55894       -4.49986
H         10.24985       -1.43548       -5.70304
H         10.16302       -3.33996       -7.38975
H         10.86514       -4.41131       -6.17613
H         12.86288       -2.84348       -6.00415
H         12.16687       -1.85269       -7.28192
H         12.29438       -3.83036       -8.85899
H         13.01668       -4.79289       -7.56539
H         14.89095       -3.07749       -7.37175
H         14.19290       -2.18842       -8.71635
H         17.05200       -3.18025       -8.56118
H         16.30715       -2.24949       -9.88450
H         19.15687       -3.33806       -9.91129
H         18.32136       -2.34071      -11.13515
H         18.48213       -4.22949      -12.77779
H         19.33276       -5.21327      -11.57808
H         21.21692       -3.55739      -11.52757
H         20.34622       -2.50261      -12.63993
H         20.40040       -4.30964      -14.39546
H         21.31058       -5.34684      -13.29906
H         23.18448       -3.68193      -13.24982
H         22.25643       -2.58581      -14.27033
H         22.23551       -4.31651      -16.10613
H         23.19900       -5.39368      -15.09874
H         25.06082       -3.70364      -15.05706
H         24.08787       -2.59836      -16.02409
H         24.02716       -4.29026      -17.89422
H         25.01836       -5.38509      -16.93411
H         26.87485       -3.68186      -16.90297
H         25.87978       -2.57663      -17.84696
H         25.80068       -4.25558      -19.72563
H         26.80248       -5.35489      -18.78435
H         27.67305       -2.54861      -19.74105
H         28.20200       -4.09123      -20.43886
H         28.68305       -3.65221      -18.78885
H         14.44958       -7.52652       -9.78199
H         13.55353       -3.67984      -10.77446
H         15.15902       -4.04569      -11.49417
H         13.24139       -7.30908      -11.72624
H         13.88142       -6.01368      -12.80086
H         10.90931       -7.86280      -11.96885
H          9.45548       -9.56333      -12.82078
H          9.30722       -9.57029      -14.59125
H          7.99394       -8.92369      -13.60050
H          8.64241       -7.00260      -15.52353
H          9.62855       -4.74744      -15.58936
H         10.90254       -3.13622      -14.82132
H         11.53637       -3.07051      -11.81713
H          9.97381       -2.69628      -12.56261
H         11.38208       -1.66693      -12.90151
H         13.53593       -3.83714      -13.41739
H         13.22434       -2.50846      -14.53938
H         13.16972       -4.18600      -15.12226
