77

S          3.61729       -2.88407       -0.96192
C          3.96246       -1.36721       -0.38560
N          3.99308       -0.98947        0.92166
C          3.87638       -1.99465        1.99070
C          2.50329       -1.89955        2.65432
O          2.27359       -0.58220        3.15940
C          2.33617        0.37428        2.11233
C          3.70041        0.36706        1.40684
S          4.27963       -0.12642       -1.63625
C          5.73109        0.84408       -1.04266
C          6.71956        0.94940       -2.20785
C          7.97643        1.75998       -1.86096
C          8.93001        1.94733       -3.02768
N          9.39890        0.57843       -3.64441
C          9.17382        0.69913       -5.15483
C          9.04030        2.23592       -5.31207
O          8.31652        2.57605       -4.10288
C         10.33709        3.03141       -5.47908
C         10.10133        4.54587       -5.41385
C         11.38931        5.36653       -5.60978
C         11.13490        6.85160       -5.48308
C         10.76316        7.61428       -6.59953
C         10.48295        8.97662       -6.47205
C         10.56994        9.59756       -5.22322
C         10.94163        8.84882       -4.10370
C         11.22089        7.48671       -4.23566
C         10.24020       -0.05099       -5.94331
C          9.95358       -0.08046       -7.45299
C         11.03999       -0.83913       -8.22081
C         10.74459       -0.95223       -9.72614
N         11.80235       -1.63307      -10.44688
C         12.94796       -1.03331      -10.93156
C         13.78148       -2.02452      -11.41323
C         13.12487       -3.27004      -11.20524
C         11.91074       -3.00088      -10.60242
H          4.66284       -1.78603        2.73422
H          4.02953       -2.98600        1.54743
H          2.44607       -2.57747        3.51572
H          1.71710       -2.17610        1.92725
H          2.15814        1.35651        2.57081
H          1.54213        0.18193        1.36427
H          4.49113        0.67822        2.10879
H          3.67042        1.06056        0.55960
H          6.17178        0.30931       -0.18993
H          5.42263        1.84374       -0.70249
H          6.22170        1.40879       -3.07453
H          6.97310       -0.08427       -2.50925
H          8.52960        1.30741       -1.02168
H          7.70078        2.77351       -1.53060
H          9.86818        2.44257       -2.71910
H          8.84671       -0.19435       -3.25222
H         10.38865        0.40471       -3.43334
H          8.18244        0.25692       -5.32770
H          8.34840        2.46868       -6.13270
H         10.77592        2.76219       -6.45345
H         11.09124        2.73987       -4.72552
H          9.64894        4.81139       -4.44625
H          9.36449        4.83704       -6.18034
H         11.82107        5.14351       -6.59870
H         12.13786        5.05547       -4.86240
H         10.70295        7.13979       -7.58196
H         10.20500        9.55750       -7.35220
H         10.35973       10.66306       -5.12639
H         11.02230        9.32714       -3.12683
H         11.52362        6.91045       -3.35742
H         10.29127       -1.09003       -5.57767
H         11.23084        0.39831       -5.75833
H          9.87283        0.94735       -7.84445
H          8.97160       -0.55314       -7.62480
H         11.15474       -1.85427       -7.80804
H         12.01270       -0.33835       -8.09006
H         10.61418        0.04858      -10.16677
H          9.80369       -1.49916       -9.89127
H         13.06126        0.04620      -10.91052
H         14.74639       -1.86769      -11.88429
H         13.48988       -4.25270      -11.48526
H         11.10858       -3.66108      -10.28802
