75

C          0.04614       -2.09154        1.56805
C          1.43281       -1.45340        1.68023
C          2.57794       -2.46259        1.54271
C          3.97044       -1.83519        1.66428
C          5.10715       -2.85221        1.51926
C          6.50563       -2.23961        1.64844
C          7.62484       -3.27279        1.47810
C          9.03517       -2.68494        1.60934
C         10.14419       -3.71967        1.43261
N         10.13579       -4.23134       -0.01630
C         11.18861       -3.44740       -0.74764
C         12.33318       -3.51928        0.26673
C         11.60535       -3.20119        1.61848
C         12.35278       -3.74886        2.84152
C         11.74109       -3.33634        4.17436
O         10.56460       -3.05775        4.32956
O         12.67224       -3.34884        5.13797
C         12.22542       -3.05903        6.50710
C         11.81460       -4.33163        7.23250
C         11.52770       -4.07309        8.71767
C         11.09662       -5.33627        9.47285
C         10.86993       -5.09749       10.96752
C         12.89865       -4.94185        0.25651
O         12.17223       -5.93548        0.18630
O         14.21822       -4.97117        0.33926
C         14.86797       -6.30018        0.36944
C         16.32995       -6.11371        0.01976
C         17.10549       -7.43711        0.11074
C         18.57643       -7.28299       -0.28325
H         -0.75015       -1.33987        1.65359
H         -0.11610       -2.83759        2.36028
H         -0.08315       -2.60327        0.60265
H          1.52217       -0.93296        2.64860
H          1.54381       -0.67356        0.90785
H          2.49289       -2.97781        0.56948
H          2.46469       -3.24933        2.30934
H          4.05860       -1.32522        2.63928
H          4.08526       -1.04726        0.89921
H          5.01847       -3.35776        0.54088
H          4.98615       -3.64356        2.27973
H          6.60999       -1.75618        2.63423
H          6.62904       -1.43728        0.90033
H          7.48342       -3.76016        0.49117
H          7.50193       -4.07585        2.22454
H          9.16909       -2.25951        2.61285
H          9.18104       -1.85488        0.89446
H          9.94844       -4.59555        2.06541
H          9.19694       -4.17916       -0.42951
H         10.50161       -5.21311       -0.01564
H         10.83531       -2.42087       -0.90141
H         11.39495       -3.91870       -1.71535
H         13.13048       -2.79840        0.05705
H         11.56089       -2.10434        1.70119
H         13.40329       -3.42799        2.82009
H         12.36779       -4.85257        2.82863
H         11.40513       -2.33096        6.45702
H         13.10336       -2.59318        6.97206
H         12.62312       -5.07397        7.13447
H         10.92208       -4.75748        6.74664
H         10.74199       -3.30431        8.81634
H         12.42835       -3.65177        9.19679
H         11.86318       -6.11792        9.33729
H         10.17463       -5.73373        9.01614
H         11.78757       -4.74199       11.45901
H         10.55827       -6.01986       11.47509
H         10.08848       -4.34261       11.13957
H         14.33905       -6.95319       -0.33702
H         14.72694       -6.69883        1.38536
H         16.77778       -5.37174        0.69978
H         16.40936       -5.70238       -0.99938
H         16.62701       -8.19111       -0.53611
H         17.03741       -7.82864        1.13918
H         18.67875       -6.94874       -1.32579
H         19.11291       -8.23564       -0.18589
H         19.08642       -6.54640        0.35448
