74

C          0.73323       -0.72202        1.01555
C          2.24383       -0.61319        0.79269
C          2.86503       -1.88729        0.20868
C          4.37507       -1.78375       -0.02804
C          4.99741       -3.05879       -0.60784
C          6.50115       -2.93710       -0.87549
C          7.13158       -4.20653       -1.45895
C          8.61812       -4.04454       -1.79434
C          9.26207       -5.30214       -2.38839
C         10.71686       -5.08277       -2.81947
C         11.36984       -6.32945       -3.43192
C         12.76511       -6.03864       -3.95527
O         13.32231       -7.25040       -4.51470
C         14.46527       -7.00873       -5.29594
C         14.95840       -8.24617       -6.00961
C         16.33247       -8.43834       -6.13847
C         16.85465       -9.49463       -6.87763
C         15.99406      -10.40997       -7.49435
C         14.63070      -10.20161       -7.31208
N         14.12521       -9.15308       -6.61125
C         12.62912       -9.06389       -6.54847
C         11.99802       -7.86815       -7.27686
C         12.27782       -7.68680       -8.76913
C         11.77188       -8.80906       -9.73688
Br         9.86989       -9.20053       -9.53262
F         12.03712       -8.48973      -11.01149
F         12.47006       -9.95900       -9.46359
Br        11.50551       -5.97688       -9.33556
F         13.64991       -7.61719       -8.97447
C         16.48477      -11.59107       -8.28359
C         16.40708      -12.91993       -7.48410
O         15.04803      -13.14856       -7.07756
C         16.97232      -14.08766       -8.28071
H          0.31983        0.20438        1.43755
H          0.48923       -1.54043        1.70952
H          0.20341       -0.92171        0.07190
H          2.74167       -0.37205        1.74733
H          2.45706        0.23514        0.11996
H          2.36224       -2.13322       -0.74366
H          2.65756       -2.73544        0.88525
H          4.87789       -1.53215        0.92254
H          4.57917       -0.93803       -0.70869
H          4.48084       -3.32098       -1.54827
H          4.81369       -3.90169        0.08162
H          7.01985       -2.66980        0.06199
H          6.67799       -2.09435       -1.56727
H          6.58360       -4.49792       -2.37276
H          7.00083       -5.04229       -0.74922
H          9.16944       -3.74718       -0.88513
H          8.73680       -3.20756       -2.50516
H          8.67245       -5.63613       -3.26048
H          9.21287       -6.12570       -1.65524
H         11.31028       -4.74672       -1.95220
H         10.75172       -4.25568       -3.55003
H         10.74896       -6.70240       -4.26446
H         11.42169       -7.13843       -2.68570
H         13.43115       -5.67068       -3.15393
H         12.72993       -5.26295       -4.74480
H         15.30504       -6.63333       -4.68166
H         14.26949       -6.22546       -6.06266
H         16.99613       -7.72806       -5.64683
H         17.93583       -9.60926       -6.97226
H         13.89789      -10.88224       -7.73333
H         12.35433       -8.98692       -5.49222
H         12.25775      -10.01430       -6.94285
H         12.28539       -6.93045       -6.78933
H         10.91238       -7.95920       -7.13606
H         17.52620      -11.41488       -8.58856
H         15.88825      -11.70428       -9.20194
H         16.98449      -12.79477       -6.55192
H         14.69020      -13.87917       -7.60628
H         16.41100      -14.23586       -9.21684
H         16.92191      -15.01218       -7.69013
H         18.02432      -13.91794       -8.54636
