82

C          1.43131       -0.43422       -3.01477
C          1.85147       -0.43056       -1.54265
C          3.19814       -1.12498       -1.32742
N          3.59927       -1.17850        0.08722
C          4.60181       -2.19036        0.37071
C          4.77203       -2.36356        1.87504
N          5.13135       -1.04590        2.52391
C          4.12247        0.05070        2.15396
C          4.03483        0.09947        0.62970
C          2.76661       -0.13356        2.82684
C          2.25149        1.24146        3.30941
O          3.03599        2.19589        3.40487
N          0.93866        1.30865        3.63723
C          0.01531        0.17494        3.52762
C         -0.67161        0.07133        2.15869
C         -1.54665       -1.17933        2.02920
C         -2.22086       -1.29634        0.66018
C          0.39900        2.55086        4.18218
C          5.40012       -1.20764        4.00908
C          5.71328        0.10541        4.71410
C          5.84868       -0.12394        6.23051
S          5.51174        1.38615        7.16849
C          3.71692        1.40837        7.14009
S          2.77266        0.13226        6.62763
N          3.23250        2.58575        7.63211
C          4.09981        3.72259        7.86861
C          4.39347        4.09784        9.18310
C          5.19344        5.21863        9.41137
C          5.68840        5.95906        8.33402
C          5.38205        5.58188        7.02230
C          4.58293        4.46395        6.78257
C          1.84092        2.79072        7.95135
C          1.18391        3.90486        7.41790
C         -0.14831        4.14917        7.75717
C         -0.82115        3.28788        8.62707
C         -0.15248        2.18469        9.16842
C          1.17927        1.93476        8.83904
H          0.45999        0.05907       -3.14683
H          1.33893       -1.45820       -3.40450
H          2.15995        0.09738       -3.64349
H          1.09516       -0.94107       -0.92574
H          1.89470        0.61065       -1.18393
H          3.98178       -0.64071       -1.94965
H          3.12152       -2.16596       -1.67801
H          5.59249       -1.95350       -0.08913
H          4.28224       -3.15572       -0.04662
H          5.57327       -3.07602        2.11117
H          3.83947       -2.70104        2.34387
H          6.01675       -0.73665        2.09425
H          4.54952        0.99587        2.51785
H          5.01712        0.41966        0.20552
H          3.31465        0.88777        0.37547
H          2.82700       -0.76327        3.72824
H          2.07480       -0.62725        2.13410
H         -0.73617        0.29576        4.32165
H          0.54638       -0.75744        3.76601
H          0.09594        0.06694        1.36566
H         -1.27805        0.97506        1.98510
H         -2.31337       -1.17571        2.82142
H         -0.92795       -2.07466        2.21398
H         -2.87636       -0.43579        0.46367
H         -2.83608       -2.20336        0.59344
H         -1.47725       -1.33827       -0.15008
H          1.17423        3.32021        4.13382
H          0.10031        2.40299        5.22961
H         -0.47462        2.87604        3.59957
H          6.22478       -1.93154        4.08357
H          4.50585       -1.66845        4.44858
H          4.89331        0.81696        4.55118
H          6.63145        0.56438        4.31417
H          6.86593       -0.42035        6.52170
H          5.13570       -0.88605        6.58016
H          3.99540        3.51277       10.01270
H          5.42865        5.51511       10.43374
H          6.31116        6.83489        8.51796
H          5.76093        6.16568        6.18282
H          4.33149        4.15431        5.76695
H          1.71555        4.57841        6.74619
H         -0.65770        5.01997        7.34321
H         -1.85915        3.48392        8.89706
H         -0.66703        1.52150        9.86441
H          1.70602        1.08264        9.26613
