87

C          1.72530       -2.24848        1.50560
C          2.89353       -1.86584        0.59387
C          4.06111       -2.85616        0.65702
C          5.27321       -2.42864       -0.17711
C          6.46866       -3.37599       -0.02373
C          7.70849       -2.87361       -0.74381
O          8.75900       -3.84186       -0.55628
C          9.99669       -3.45121       -1.10260
N         10.94966       -4.52293       -0.86037
C         11.29376       -4.85466        0.42977
N         11.71370       -3.89993        1.25835
C         12.07835       -4.14612        2.65894
C         12.53434       -5.59357        2.81594
C         11.58786       -6.63209        2.17196
N         11.25172       -6.13084        0.81576
C         10.28339       -6.85870        2.98998
C          9.15431       -5.83012        2.81431
C          8.15923       -5.90566        3.97514
S          6.94868       -4.55754        3.97396
C          7.88671       -3.20343        4.68310
S          9.46469       -3.36870        5.22459
N          7.18139       -2.05149        4.76107
C          7.76231       -0.80364        5.27163
C          7.67450        0.27169        4.18951
O          6.33388        0.46323        3.73938
C          5.79033       -0.74652        3.22908
C          5.80887       -1.86253        4.27805
C         12.38522       -7.95034        2.01591
C         11.68979       -9.11089        1.28719
P         12.94311      -10.37937        0.87743
O         14.09139       -9.83900        0.12140
O         13.42516      -11.01951        2.27210
C         12.52899      -11.75504        3.15361
C         13.34417      -12.77263        3.92562
O         12.02625      -11.48006        0.15228
C         12.67945      -12.62179       -0.50112
C         11.63556      -13.35778       -1.31166
H          0.90222       -1.52558        1.42878
H          2.03603       -2.28395        2.56115
H          1.32256       -3.23905        1.24859
H          3.25643       -0.85840        0.86123
H          2.54087       -1.78681       -0.44769
H          3.71760       -3.85140        0.32636
H          4.37231       -2.98978        1.70815
H          5.57057       -1.40704        0.11752
H          4.98333       -2.36044       -1.23921
H          6.21146       -4.37431       -0.41260
H          6.71247       -3.50928        1.04305
H          8.03119       -1.89678       -0.33345
H          7.51892       -2.73740       -1.82539
H         10.35684       -2.50804       -0.64799
H          9.94354       -3.29679       -2.19483
H         10.78960       -5.33322       -1.45501
H         11.85042       -2.97494        0.86636
H         11.23213       -3.89592        3.32125
H         12.90123       -3.46313        2.90610
H         12.63652       -5.82417        3.88352
H         13.52939       -5.70654        2.36022
H         10.77280       -6.77724        0.19552
H         10.58403       -6.89427        4.04914
H          9.88637       -7.85803        2.75553
H          8.62885       -5.97892        1.85921
H          9.54808       -4.80743        2.79943
H          8.68121       -5.86504        4.94226
H          7.54315       -6.81680        3.94148
H          8.80096       -0.99934        5.56133
H          7.19214       -0.49320        6.16221
H          8.32410       -0.00909        3.33611
H          8.01011        1.23929        4.58441
H          6.36022       -1.07633        2.33735
H          4.75820       -0.52673        2.92569
H          5.41908       -2.79116        3.84624
H          5.17049       -1.58843        5.13384
H         12.67417       -8.27923        3.02614
H         13.32196       -7.71976        1.48629
H         11.27032       -8.81617        0.31151
H         10.87442       -9.56291        1.86949
H         11.74235      -12.23993        2.55511
H         12.05125      -11.03070        3.83447
H         13.80261      -13.50339        3.24694
H         12.69663      -13.31274        4.63017
H         14.14296      -12.28211        4.49658
H         13.11286      -13.26411        0.28144
H         13.49610      -12.23827       -1.12909
H         10.81923      -13.72139       -0.67362
H         12.09755      -14.22477       -1.80347
H         11.21191      -12.70927       -2.08939
