67

C          0.72706        0.08729        0.08040
C          2.25754        0.09886        0.11076
C          2.86354       -1.22538        0.58793
C          4.39498       -1.22458        0.62913
C          4.99350       -2.54411        1.12603
C          6.52426       -2.54270        1.18970
C          7.11133       -3.85633        1.71479
C          8.64201       -3.86836        1.77965
C          9.21001       -5.18167        2.32660
C         10.74099       -5.23109        2.35098
C         11.28175       -6.53378        2.94996
C         12.81290       -6.63447        2.89725
C         13.30089       -7.88206        3.61985
N         14.77613       -8.16185        3.40547
C         15.72421       -7.17112        4.11158
C         15.39785       -6.89401        5.55595
C         15.45296       -7.93485        6.50076
C         15.13313       -7.71772        7.83856
C         14.77088       -6.43480        8.25390
C         14.76237       -5.38635        7.33542
C         15.07896       -5.58153        5.98145
C         15.14197       -4.37507        5.07352
C         15.11838       -9.62049        3.63503
C         14.72275      -10.43205        2.40598
O         15.23075       -9.69898        1.28850
H          0.32239        1.04959       -0.26193
H          0.30963       -0.11159        1.07888
H          0.34654       -0.69236       -0.59634
H          2.60754        0.91412        0.76665
H          2.64546        0.33430       -0.89487
H          2.51567       -2.04266       -0.06860
H          2.47257       -1.46189        1.59359
H          4.74148       -0.40074        1.27792
H          4.78836       -1.00008       -0.37805
H          4.65652       -3.36765        0.47198
H          4.58871       -2.77179        2.12802
H          6.86198       -1.70987        1.83140
H          6.93286       -2.33406        0.18526
H          6.76898       -4.68994        1.07658
H          6.70294       -4.06054        2.72028
H          8.98966       -3.02960        2.40793
H          9.05267       -3.68173        0.77183
H          8.83135       -6.02297        1.72005
H          8.82336       -5.34789        3.34733
H         11.13026       -4.37501        2.92917
H         11.12850       -5.10736        1.32471
H         10.84365       -7.39457        2.41607
H         10.94509       -6.61920        3.99728
H         13.24981       -5.73326        3.34985
H         13.14308       -6.65803        1.84366
H         12.76717       -8.76624        3.24695
H         13.14969       -7.81992        4.70528
H         14.95681       -8.04858        2.39008
H         15.68175       -6.25556        3.51267
H         16.72606       -7.60417        3.98447
H         15.77270       -8.93257        6.19720
H         15.18288       -8.53948        8.55269
H         14.51672       -6.24588        9.29709
H         14.51441       -4.37920        7.67438
H         14.80111       -3.48024        5.60696
H         14.51820       -4.46650        4.17290
H         16.17147       -4.17809        4.73723
H         14.61315       -9.97413        4.54047
H         16.20459       -9.67246        3.77948
H         13.62985      -10.56464        2.33428
H         15.18229      -11.43015        2.49139
H         15.01326      -10.15442        0.46041
