67

C          0.92734       -0.01165        0.44511
C          2.31449        0.34737        0.98277
C          3.16362       -0.88158        1.32612
C          4.54446       -0.53041        1.88999
C          5.38109       -1.77011        2.23335
C          6.72419       -1.39231        2.82454
O          7.45369       -2.63734        3.11553
C          8.61466       -2.50616        3.76191
O          9.12884       -1.45880        4.10545
C          9.21906       -3.88391        4.06152
C         10.73300       -3.74462        4.24774
C         11.45863       -3.69006        2.89788
C         12.97019       -3.52326        3.03196
C         13.53655       -4.65610        3.88598
C         12.85983       -4.71343        5.24910
N         11.32279       -4.77734        5.24081
C         10.80439       -6.20159        5.10608
C         11.10067       -6.98579        3.83357
C         10.43274       -8.35854        3.93068
F         10.71393       -9.07419        2.77043
C         10.88944       -4.29971        6.67164
O         11.46885       -5.09061        7.63144
C         10.57188       -5.78094        8.55277
C         11.35056       -6.89322        9.22931
C         10.54744       -7.57544       10.34603
C         11.31798       -8.72028       11.00863
H          0.34035        0.88832        0.21868
H          0.35661       -0.60424        1.17547
H          0.99687       -0.60385       -0.47924
H          2.21033        0.97818        1.88174
H          2.85094        0.96392        0.24192
H          3.28437       -1.50657        0.42413
H          2.62084       -1.50662        2.05671
H          4.42134        0.09302        2.79241
H          5.09038        0.09341        1.16150
H          5.53856       -2.37963        1.32920
H          4.83512       -2.40235        2.95196
H          6.62811       -0.82727        3.76259
H          7.33749       -0.79961        2.12999
H          8.95864       -4.58171        3.25466
H          8.69965       -4.23819        4.96505
H         10.90845       -2.77983        4.75145
H         11.02568       -2.83155        2.36422
H         11.22334       -4.57862        2.29378
H         13.20064       -2.54927        3.49423
H         13.43910       -3.51872        2.03949
H         14.60781       -4.50453        4.08451
H         13.45879       -5.61223        3.35199
H         13.10191       -3.79736        5.80656
H         13.19073       -5.56363        5.85553
H          9.71848       -6.13654        5.25772
H         11.22765       -6.72496        5.97318
H         12.17749       -7.14411        3.69547
H         10.71645       -6.48251        2.93719
H          9.33669       -8.27389        4.01712
H         10.81486       -8.93872        4.78682
H          9.79016       -4.32263        6.69595
H         11.25005       -3.26143        6.72811
H          9.70512       -6.17468        7.99284
H         10.20341       -5.04765        9.28880
H         12.27880       -6.46856        9.64382
H         11.65493       -7.63906        8.47528
H          9.59686       -7.95872        9.93860
H         10.27405       -6.82497       11.10550
H         11.55023       -9.51851       10.28846
H         10.73532       -9.16826       11.82386
H         12.26886       -8.36846       11.43463
