70

C          5.57425        1.17579       -9.24278
C          5.25335        0.82846       -7.78725
C          6.11924       -0.30748       -7.22972
C          5.79729       -0.66149       -5.77481
C          6.69422       -1.76030       -5.19372
C          6.33691       -2.11183       -3.74457
C          7.18125       -3.22450       -3.11100
C          8.67982       -2.92958       -2.98789
S          8.96109       -1.39155       -1.97593
C          9.64669       -2.29266       -0.69845
N          9.79216       -3.56981       -0.94169
C          9.46537       -4.07413       -2.28078
C         10.74882       -4.60925       -2.99844
C         11.40802       -5.73555       -2.10538
C         10.43648       -6.76897       -1.50095
C         12.54142       -6.48723       -2.82274
C         10.33513       -5.11082       -4.39677
O          9.23530       -6.01874       -4.29467
C         11.76733       -3.47049       -3.20729
C         10.08580       -1.68821        0.60038
C         10.01024       -2.66030        1.78654
O         10.82208       -3.80035        1.51010
Si        11.29024       -4.93970        2.70439
C          9.76938       -5.90861        3.21478
C         12.54228       -6.00009        1.80906
C         12.04012       -4.01724        4.15151
H          4.94275        1.99698       -9.60741
H          5.41104        0.31310       -9.90559
H          6.62298        1.48781       -9.35831
H          4.18973        0.54977       -7.69962
H          5.38302        1.72403       -7.15626
H          7.18428       -0.02536       -7.31199
H          5.99508       -1.20507       -7.86097
H          4.74229       -0.97673       -5.69871
H          5.88607        0.24471       -5.14999
H          7.74567       -1.42753       -5.26501
H          6.62092       -2.66782       -5.81842
H          5.28242       -2.42552       -3.69937
H          6.39425       -1.20288       -3.11933
H          7.10378       -4.14772       -3.71062
H          6.78676       -3.46829       -2.11070
H          9.11180       -2.70657       -3.97110
H         10.23129       -4.13157       -0.18817
H          8.77539       -4.92040       -2.16390
H         11.88213       -5.19347       -1.26604
H          9.86672       -7.29043       -2.27954
H          9.71395       -6.34173       -0.78933
H         11.00915       -7.52334       -0.94487
H         12.15023       -7.17375       -3.58706
H         13.09211       -7.09834       -2.09548
H         13.27072       -5.82035       -3.29974
H         11.20726       -5.59039       -4.86991
H         10.06508       -4.24629       -5.03197
H          9.05676       -6.38886       -5.17251
H         12.14178       -3.08717       -2.24832
H         11.34221       -2.62817       -3.76981
H         12.63807       -3.82097       -3.77457
H          9.49056       -0.78873        0.80984
H         11.13031       -1.35607        0.46909
H          8.96133       -2.96114        1.96202
H         10.36229       -2.12965        2.68570
H          9.31279       -6.41869        2.35469
H          9.00828       -5.26354        3.67615
H         10.03414       -6.67826        3.95393
H         12.08639       -6.54923        0.97476
H         12.96663       -6.74373        2.49854
H         13.37205       -5.39512        1.41877
H         11.30797       -3.39199        4.68099
H         12.87780       -3.38058        3.83511
H         12.43137       -4.73973        4.88252
