47

C         15.04811        4.84009       -3.91016
C         14.89169        3.33078       -3.70846
C         13.44624        2.93223       -3.37515
C         13.30172        1.41857       -3.20731
S         11.53913        1.06573       -2.83149
C         11.57256       -0.65520       -2.80695
N         12.55048       -1.50961       -2.95883
N         11.98070       -2.78153       -2.84074
C         10.71265       -2.59082       -2.63628
O         10.34083       -1.29242       -2.59349
N          9.71454       -3.53615       -2.48048
C          9.91475       -4.88938       -2.58894
N          8.85612       -5.71392       -2.46707
C          9.08031       -7.17741       -2.43739
C          9.96767       -7.65637       -1.30984
C          9.76262       -7.52554        0.00388
Br         8.23953       -6.67630        0.72907
Br        11.53491       -8.60288       -1.86625
C          7.47128       -5.21117       -2.54586
C          7.03861       -4.59698       -3.89618
C          7.10217       -5.47474       -5.14866
C          6.16582       -6.72904       -5.19011
Br         4.28721       -6.29698       -4.88167
F          6.30019       -7.37781       -6.35490
F          6.56668       -7.59479       -4.20374
Br         6.71685       -4.35268       -6.70795
F          8.39073       -5.97196       -5.29882
N         11.15316       -5.31184       -2.80656
H         16.09069        5.10245       -4.13147
H         14.74920        5.39731       -3.01050
H         14.42984        5.19955       -4.74543
H         15.55869        2.99125       -2.89930
H         15.21565        2.79825       -4.61756
H         12.77412        3.28188       -4.17625
H         13.12809        3.44300       -2.45129
H         13.91083        1.03217       -2.37956
H         13.56370        0.87578       -4.12514
H          8.80793       -3.19489       -2.17991
H          9.47715       -7.51638       -3.40501
H          8.09015       -7.63526       -2.32926
H         10.44102       -7.90516        0.76385
H          7.30459       -4.45902       -1.75587
H          6.82448       -6.04893       -2.26834
H          7.64323       -3.71086       -4.13227
H          6.00553       -4.24344       -3.77792
H         11.90308       -4.59432       -2.85457
H         11.37922       -6.30052       -2.89607
