64

N          2.33302        3.39547       -1.78209
C          2.01825        1.98960       -2.09536
C          2.76343        1.50876       -3.34761
C          4.26948        1.81016       -3.36631
C          5.03226        1.24204       -2.16226
C          6.54978        1.55609       -2.17681
C          7.40011        0.32712       -1.74322
C          8.88898        0.41117       -2.14789
C          9.59014       -0.95382       -2.22562
C         11.08001       -0.86739       -2.59613
C         11.96232       -0.41258       -1.42763
S         13.64576       -0.08542       -1.99135
O         14.26293       -1.32255       -2.41953
O         13.60482        1.08180       -2.83604
O         14.34249        0.36299       -0.58954
C          7.21646        0.05613       -0.24719
N          7.58704        1.29265        0.55344
C          6.78471        2.51904        0.16164
C          6.95053        2.79417       -1.33141
C          6.22653        4.11186       -1.70188
C          6.76308        5.29775       -0.92186
C          8.04814        5.77807       -1.22370
C          8.61814        6.83646       -0.51654
C          7.89365        7.43792        0.51455
C          6.61083        6.97934        0.81415
C          6.02244        5.91378        0.11304
C          4.62011        5.47966        0.47252
H          1.80145        3.69406       -0.96293
H          2.02077        3.99878       -2.54669
H          0.93900        1.79922       -2.24092
H          2.31740        1.38514       -1.22328
H          2.30742        1.97092       -4.23836
H          2.59111        0.42510       -3.45178
H          4.41661        2.89810       -3.41273
H          4.70336        1.39903       -4.29215
H          4.88576        0.14818       -2.14323
H          4.56560        1.62168       -1.23933
H          6.83762        1.77599       -3.21793
H          6.97553       -0.55416       -2.25214
H          9.45477        1.08785       -1.47977
H          8.94745        0.89381       -3.13594
H          9.07569       -1.56252       -2.98545
H          9.48347       -1.50800       -1.27624
H         11.20843       -0.17835       -3.44533
H         11.42974       -1.85185       -2.93607
H         12.03358       -1.17777       -0.64212
H         11.63107        0.53522       -0.97912
H         14.99756       -0.32543       -0.36321
H          7.84980       -0.76233        0.11930
H          6.17207       -0.16846        0.00634
H          8.58504        1.49609        0.39767
H          7.47761        1.10560        1.55764
H          7.14974        3.35803        0.76863
H          5.74283        2.30674        0.43783
H          8.02740        2.97987       -1.50136
H          5.14215        3.99945       -1.55941
H          6.38516        4.27806       -2.77851
H          8.60734        5.32585       -2.04757
H          9.61256        7.19851       -0.77899
H          8.31872        8.27186        1.07383
H          6.03873        7.46563        1.60697
H          4.18417        6.16583        1.20870
H          4.58612        4.47066        0.91427
H          3.95626        5.45472       -0.40330
