41

C          1.09628       -1.21748       -0.17776
C          2.30917       -0.31183       -0.19202
O          2.97955       -0.42690        1.08473
C          4.14306        0.37284        1.18137
C          4.66278        0.12834        2.58744
N          4.93319       -1.32947        2.84063
C          5.59456       -1.30164        4.19299
O          6.41511       -0.16466        4.14979
C          6.02215        0.73572        3.01957
N          6.97522        0.70483        1.92685
N          8.28843        1.24826        2.26777
N          7.17452       -0.67008        1.52982
C          5.84704        2.11220        3.58293
N          6.53895        3.19191        3.38282
N          6.02124        4.17433        4.20758
C          5.02535        3.61749        4.85686
O          4.84917        2.29068        4.50749
S          3.98880        4.40789        5.98678
C          3.19304        2.99410        6.85097
C          2.37850        3.56499        8.00998
H          0.56798       -1.14485       -1.13761
H          0.39736       -0.92848        0.61816
H          1.38554       -2.26687       -0.03005
H          2.02173        0.74322       -0.34877
H          3.01485       -0.59510       -0.99455
H          3.92566        1.45212        1.06934
H          4.88740        0.10396        0.41155
H          3.89469        0.43553        3.31053
H          5.69409       -1.55501        2.12803
H          4.08772       -1.90631        2.75449
H          6.20166       -2.20654        4.33527
H          4.80673       -1.23169        4.96212
H          8.10794        2.11852        2.79160
H          8.65253        1.58921        1.37016
H          7.39993       -0.65661        0.53218
H          8.02299       -0.99129        2.02225
H          3.98551        2.32354        7.20775
H          2.55534        2.45713        6.13710
H          3.01538        4.10374        8.72354
H          1.88809        2.74316        8.54817
H          1.59496        4.24936        7.65815
