72

C          7.90675       -5.23102      -10.71808
C          7.35713       -4.66151       -9.40798
C          8.01837       -5.26143       -8.16187
C          7.46057       -4.70923       -6.84616
C          8.14573       -5.28433       -5.60271
C          7.55744       -4.76071       -4.28800
C          8.28041       -5.30261       -3.05073
C          7.62282       -4.82440       -1.75528
N          8.29757       -5.28684       -0.52510
C          9.62360       -5.30111       -0.23949
N         10.45130       -4.29019       -0.52405
C         11.92044       -4.44297       -0.58651
C         12.36339       -4.76871       -2.02666
C         13.90011       -4.86186       -2.14933
N         14.33795       -6.17357       -1.64320
O         11.77170       -5.98492       -2.46082
C          9.98700       -2.91076       -0.76683
C          9.71728       -2.13541        0.53813
C          9.99996       -0.63143        0.36325
P         11.78691       -0.26035        0.35614
O         12.61483       -1.27497       -0.36092
O         11.95039        1.23659       -0.19358
C         12.22562        1.48394       -1.60844
C         12.56667        2.94925       -1.76925
O         12.05595       -0.09409        1.91971
C         13.40970        0.16197        2.41904
C         13.35361        0.17546        3.93109
N         10.05382       -6.38165        0.46392
H          7.41916       -4.77550      -11.59063
H          7.74685       -6.31795      -10.77910
H          8.98835       -5.05128      -10.81074
H          6.26852       -4.83294       -9.35910
H          7.49024       -3.56632       -9.39612
H          9.10689       -5.07920       -8.20374
H          7.89596       -6.35898       -8.17693
H          6.37687       -4.91437       -6.79483
H          7.55952       -3.60927       -6.84022
H          9.22477       -5.05405       -5.63735
H          8.07270       -6.38547       -5.61867
H          6.48597       -5.02271       -4.23812
H          7.59877       -3.65708       -4.28187
H          9.33962       -5.00344       -3.07683
H          8.28190       -6.40475       -3.06393
H          6.60003       -5.21896       -1.68141
H          7.51699       -3.72808       -1.74534
H          7.76812       -5.95294        0.02760
H         12.26918       -5.22878        0.09600
H         12.35662       -3.48879       -0.25482
H         12.00324       -3.96468       -2.68908
H         14.37800       -4.00551       -1.64665
H         14.15121       -4.79854       -3.21587
H         14.69389       -6.12039       -0.69029
H         15.08311       -6.56568       -2.21452
H         12.45430       -6.65867       -2.22934
H          9.10757       -2.90039       -1.41765
H         10.79886       -2.42126       -1.31657
H         10.35359       -2.53909        1.33997
H          8.67710       -2.28939        0.85961
H          9.54542       -0.04056        1.16956
H          9.57626       -0.25447       -0.58120
H         11.32761        1.21750       -2.19051
H         13.05018        0.82856       -1.92183
H         11.73598        3.58847       -1.44362
H         12.77357        3.16499       -2.82656
H         13.45898        3.21053       -1.18556
H         13.74444        1.13014        2.01776
H         14.07508       -0.62726        2.03859
H         12.67578        0.95886        4.29345
H         14.35577        0.37592        4.33395
H         13.01362       -0.79183        4.32432
H          9.67215       -7.29051        0.22942
H         10.99213       -6.38981        0.84093
