52

C          3.40694        1.96492        2.72489
C          3.49862        1.32824        1.33549
C          4.21750        2.21949        0.33615
O          4.24181        1.54532       -0.93428
C          4.89586        2.27030       -1.96629
C          6.40544        2.32156       -1.82827
N          7.07448        1.09640       -1.86029
C          8.41162        1.02496       -1.83629
C          9.21365        2.16837       -1.74534
C          8.57150        3.44438       -1.66655
C          7.13572        3.49746       -1.71383
C          6.45652        4.84825       -1.61159
C          6.46150        5.73506       -2.88101
C          5.58795        5.29753       -4.04598
Br         6.35002        3.80771       -5.10186
C          9.40317        4.58518       -1.53432
C         10.77977        4.45547       -1.50100
C         11.40194        3.18800       -1.59062
C         10.62866        2.05432       -1.70590
C          6.38395       -0.20055       -2.01182
C          6.39653       -0.73456       -3.49940
N          7.65106       -0.40800       -4.15135
N          6.33935       -2.19335       -3.36774
N          5.30697       -0.05680       -4.21558
H          2.88418        1.29918        3.42275
H          2.85391        2.91473        2.69880
H          4.40262        2.16788        3.14528
H          2.49183        1.10984        0.94806
H          4.02977        0.36507        1.39334
H          5.25018        2.43407        0.67366
H          3.69306        3.18814        0.22281
H          4.49619        3.29080       -2.03277
H          4.66236        1.76791       -2.91576
H          8.84273        0.02799       -1.85297
H          6.96092        5.41272       -0.81368
H          5.42378        4.73180       -1.26332
H          7.48745        5.89737       -3.24180
H          6.08623        6.72598       -2.57319
H          5.47827        6.10412       -4.77699
H          4.59233        4.95655       -3.74043
H          8.96657        5.57888       -1.45795
H         11.39887        5.34754       -1.40116
H         12.48878        3.11421       -1.56282
H         11.08531        1.06557       -1.76824
H          5.36794       -0.10931       -1.61617
H          6.93741       -0.92072       -1.39987
H          8.12073       -1.23048       -4.51820
H          7.56196        0.32614       -4.84934
H          5.61487       -2.48403       -2.70865
H          6.10701       -2.61783       -4.26826
H          5.31831       -0.31948       -5.20342
H          4.39946       -0.34215       -3.84070
