62

N          1.69868       -1.64498        0.14764
C          2.79511       -0.69548        0.36109
C          3.52392       -0.41228       -0.95344
C          4.63887        0.62664       -0.80870
C          5.33798        0.94630       -2.13187
C          6.41686        2.01793       -1.96229
N          7.04857        2.43940       -3.23823
C          8.44805        2.03783       -3.42152
C          9.38646        2.85346       -2.51198
N          9.16195        4.33632       -2.77067
C          7.70257        4.76304       -2.66913
C          6.87955        3.85458       -3.59558
C          5.42048        4.32365       -3.71791
C          4.74554        3.93803       -5.07325
N          5.61284        4.47854       -6.14446
N          4.60887        2.49695       -5.14219
N          3.38287        4.45109       -5.20557
C          8.68079        0.52843       -3.27248
C         10.03641        0.04246       -3.82538
C         10.15080       -1.46524       -3.78156
C          9.60094       -2.24969       -4.80626
C          9.66868       -3.64307       -4.75280
C         10.29016       -4.27209       -3.67036
C         10.84389       -3.50068       -2.64591
C         10.77330       -2.10666       -2.70216
H          1.14005       -1.74886        0.99475
H          2.06389       -2.57303       -0.07230
H          3.53438       -1.01933        1.12365
H          2.35219        0.24168        0.73613
H          2.78484       -0.07674       -1.69823
H          3.94910       -1.35345       -1.34478
H          5.37905        0.27434       -0.06809
H          4.21317        1.55676       -0.38991
H          4.60839        1.29734       -2.87756
H          5.79053        0.03335       -2.55085
H          7.18404        1.65619       -1.25481
H          5.96462        2.89556       -1.47045
H          8.70090        2.29864       -4.46827
H         10.44969        2.65882       -2.70253
H          9.17471        2.68257       -1.44773
H          9.48518        4.54800       -3.72671
H          9.74221        4.89574       -2.13350
H          7.66421        5.82018       -2.96434
H          7.41626        4.67174       -1.61234
H          7.29425        3.97202       -4.61719
H          5.39987        5.42327       -3.64549
H          4.79907        3.94388       -2.89628
H          5.24958        4.15449       -7.04343
H          5.54922        5.50087       -6.17579
H          5.51130        2.02807       -5.05982
H          4.14988        2.22859       -6.01348
H          3.33936        5.46729       -5.13303
H          2.76847        4.04381       -4.49876
H          7.87130        0.02751       -3.82294
H          8.58150        0.21322       -2.22156
H         10.87070        0.47734       -3.25153
H         10.14898        0.39227       -4.86501
H          9.12376       -1.76468       -5.66150
H          9.24279       -4.23842       -5.56113
H         10.35075       -5.35984       -3.62936
H         11.33876       -3.98491       -1.80323
H         11.21771       -1.51005       -1.90164
