30

N          0.76529        0.09932       -0.00609
C          2.21312        0.20677       -0.03933
C          2.83610       -1.05946        0.58138
C          4.37392       -1.03467        0.54226
C          4.92380       -2.33322        1.14164
S          6.74621       -2.39769        0.93662
C          7.31398       -1.30852        2.28613
C          8.84042       -1.21702        2.18347
O          9.45132       -1.68318        1.24228
O          9.32564       -0.56618        3.23370
C         10.79632       -0.37999        3.28007
C         11.46808       -1.56361        3.94475
I          7.36559       -4.62497        1.69055
H          0.30626        0.59257       -0.76702
H          0.35629        0.39605        0.87723
H          2.60862        1.10232        0.47962
H          2.53027        0.28604       -1.09007
H          2.45218       -1.93468        0.03602
H          2.49156       -1.16082        1.62382
H          4.74247       -0.15882        1.09970
H          4.71905       -0.92711       -0.49822
H          4.57378       -3.21347        0.58286
H          4.67897       -2.46871        2.20377
H          6.96353       -1.67785        3.25845
H          6.85896       -0.32528        2.08531
H         10.90926        0.54389        3.85796
H         11.14530       -0.22273        2.25231
H         11.07570       -1.72881        4.95639
H         12.54421       -1.35799        4.02955
H         11.34875       -2.48058        3.35393
