38

F          4.87803        0.31177       -0.85699
C          4.23073       -0.81363       -1.40294
C          4.62869       -2.00986       -0.55974
N          4.36424       -1.70648        0.89768
N          2.91220       -1.61472        1.14035
C          2.29522       -2.93388        1.32661
C          2.66306       -0.69923        2.26011
C          5.17291       -2.57941        1.85280
C          6.58526       -2.03550        2.05222
C          7.44083       -2.94836        2.94549
S          7.86553       -4.54256        2.19246
C          6.61819       -5.64056        2.82803
S          5.51728       -5.28372        4.00037
N          6.71330       -6.89662        2.23119
C          7.40152       -7.24934        1.05370
N          7.24046       -8.50679        0.76041
C          6.43366       -9.03155        1.76838
C          6.08772       -8.06996        2.67133
H          4.56870       -0.94465       -2.43998
H          3.15034       -0.62286       -1.37328
H          5.70324       -2.21505       -0.64742
H          4.07070       -2.91172       -0.83782
H          4.68585       -0.72943        1.01516
H          2.51092       -3.58938        0.47432
H          1.21191       -2.76698        1.34286
H          2.58568       -3.44161        2.26323
H          3.11915        0.27826        2.04815
H          3.01391       -1.07310        3.23996
H          1.57862       -0.55107        2.31962
H          5.17286       -3.59492        1.43855
H          4.63034       -2.59977        2.80429
H          6.53403       -1.04360        2.53324
H          7.09551       -1.89657        1.08605
H          6.95188       -3.16671        3.90757
H          8.40972       -2.47101        3.14221
H          7.96049       -6.52241        0.47204
H          6.15637      -10.08080        1.77315
H          5.49328       -8.07952        3.57563
