52

O          4.70905        1.83371        0.66714
C          4.92351        0.73479        1.16767
C          4.96539        0.50252        2.62645
C          4.73862        1.60070        3.48087
C          4.76115        1.43120        4.86072
C          5.01284        0.16590        5.40587
C          5.23968       -0.93108        4.56824
C          5.21580       -0.76713        3.18457
C          5.16940       -0.46752        0.21210
N          5.02021       -0.08641       -1.18504
C          5.75849        0.90872       -1.74989
N          5.22544        1.72199       -2.65932
C          3.82012        2.07689       -2.81118
C          3.72006        3.64095       -2.88263
N          4.81082        4.07967       -3.78895
N          2.34581        3.93829       -3.23394
N          3.97269        4.31311       -1.62120
N          7.06149        1.01169       -1.43321
C          7.95435        2.08749       -1.86661
C          9.21596        2.10388       -1.00215
C         10.20401        3.18164       -1.46563
C         11.47542        3.17005       -0.61195
S         12.62067        4.44267       -1.20973
O         13.10087        4.06857       -2.51937
O         12.04950        5.74511       -0.95645
Cl        14.18609        4.17327        0.13321
H          4.54155        2.57644        3.03735
H          4.58117        2.28243        5.51728
H          5.02913        0.03306        6.48822
H          5.43240       -1.91477        4.99595
H          5.38966       -1.63741        2.55046
H          4.44886       -1.27141        0.41268
H          6.16087       -0.90627        0.40337
H          4.07218       -0.14457       -1.54252
H          5.81672        2.40964       -3.14993
H          3.23086        1.73510       -1.95231
H          3.41136        1.61952       -3.72758
H          4.54865        3.94395       -4.76710
H          4.96326        5.08047       -3.64876
H          2.09370        3.60065       -4.16190
H          2.18098        4.94486       -3.19454
H          4.86799        4.03801       -1.21823
H          3.24549        4.07451       -0.94677
H          7.49202        0.20833       -0.98770
H          7.41881        3.04536       -1.77214
H          8.22596        1.96036       -2.92948
H          9.70239        1.11430       -1.05279
H          8.93210        2.27175        0.04912
H          9.73299        4.17460       -1.40460
H         10.47204        3.01490       -2.52019
H         12.02333        2.22046       -0.67866
H         11.28261        3.41237        0.44184
