75

C          0.95023       -0.21207       -0.90182
C          2.46389       -0.01376       -1.01263
C          3.04197        0.86107        0.10574
C          4.54666        1.11265       -0.02989
C          5.12664        1.99937        1.07744
C          6.60335        2.33712        0.84781
C          7.19464        3.22873        1.94242
C          8.65666        3.67563        1.73533
C          8.82038        4.60133        0.51202
N         10.17931        4.20924        0.04049
C         10.23713        2.71248        0.22900
O          9.48539        2.52114        1.41212
C          9.71382        1.92531       -0.96956
C         10.04467        0.43786       -0.74248
O         11.17386        0.11462       -0.38303
N          9.02578       -0.43160       -0.96119
C          9.19713       -1.88294       -0.89166
C          9.33566       -2.53335       -2.27275
C          9.52557       -4.05227       -2.19487
C          9.64846       -4.70648       -3.57341
C          9.16653        4.27220        3.07088
C         10.56683        4.88694        3.14556
O         11.29819        5.05867        2.12779
N         11.01360        5.26385        4.35696
C         10.22621        5.17972        5.59909
C          9.40689        6.44425        5.88840
C          8.61363        6.34050        7.19603
C          7.80297        7.60333        7.49759
C         12.34470        5.86736        4.48752
H          0.56829       -0.84927       -1.71054
H          0.41738        0.74874       -0.95674
H          0.67734       -0.68684        0.05215
H          2.70492        0.44133       -1.98867
H          2.96801       -0.99509       -1.00362
H          2.83368        0.39145        1.08284
H          2.51394        1.83076        0.11832
H          4.74407        1.58332       -1.01031
H          5.08216        0.14621       -0.04217
H          5.00861        1.49859        2.05333
H          4.54174        2.93321        1.14138
H          6.68861        2.82539       -0.13948
H          7.19097        1.40777        0.79111
H          7.14028        2.69375        2.90370
H          6.57906        4.13648        2.06513
H          8.81085        5.66730        0.76469
H          8.07144        4.39875       -0.26177
H         10.83278        4.63847        0.84643
H         10.41126        4.51721       -0.90788
H         11.28144        2.42216        0.42050
H         10.26831        2.23013       -1.87243
H          8.64396        2.10663       -1.13814
H          8.14434       -0.06816       -1.30869
H          8.33906       -2.30549       -0.34619
H         10.09803       -2.05918       -0.28885
H         10.19232       -2.07520       -2.79366
H          8.44089       -2.30404       -2.87778
H          8.67935       -4.50025       -1.64704
H         10.42582       -4.27391       -1.59807
H          8.74421       -4.54072       -4.17755
H          9.79594       -5.79111       -3.48809
H         10.50205       -4.29853       -4.13436
H          9.11156        3.44990        3.79895
H          8.43953        5.02606        3.41344
H         10.94285        4.99789        6.41329
H          9.57432        4.29747        5.56441
H          8.71481        6.63527        5.05051
H         10.08044        7.31563        5.93083
H          9.30770        6.13802        8.02822
H          7.93888        5.46936        7.14525
H          8.45602        8.48154        7.60291
H          7.23653        7.49758        8.43165
H          7.08274        7.81912        6.69483
H         12.75760        6.06383        3.49603
H         13.01088        5.18313        5.03203
H         12.26864        6.80894        5.04668
