44

C          4.72239       -2.11484       -0.62285
C          4.14196       -1.43116        0.61446
N          2.68176       -1.21937        0.51654
C          1.86796       -2.16863        1.01317
O          2.26782       -3.22251        1.54327
C          0.34516       -1.97463        0.92956
P         -0.36466       -3.47776        1.68709
C         -0.00193       -3.55939        3.47562
C         -0.70975       -4.63135        4.34189
C         -0.34773       -6.07424        3.93079
F         -0.71998       -6.30653        2.62906
F          0.98814       -6.28903        4.01309
F         -0.97047       -6.97774        4.69615
O         -0.42457       -4.41335        5.70212
C         -2.17411       -3.52902        1.44644
C         -2.58803       -3.25702       -0.02138
O         -1.59108       -3.79809       -0.90421
C         -3.98325       -3.78134       -0.32370
C          2.21322        0.02623       -0.10911
C          2.12213        1.19694        0.87054
H          5.80893       -2.22528       -0.50928
H          4.54104       -1.53248       -1.53667
H          4.29167       -3.11562       -0.75389
H          4.60069       -0.44496        0.77251
H          4.32550       -2.03578        1.51058
H         -0.01829       -1.93156       -0.10790
H         -0.02143       -1.08287        1.45955
H          0.18196       -4.58752        1.03040
H         -0.28365       -2.57995        3.89116
H          1.09040       -3.65630        3.54621
H         -1.80403       -4.55111        4.25364
H          0.51459       -4.60402        5.87530
H         -2.64886       -2.81458        2.13624
H         -2.48114       -4.54169        1.75368
H         -2.56359       -2.16782       -0.19068
H         -1.89488       -4.65500       -1.24552
H         -4.02700       -4.87462       -0.19640
H         -4.26787       -3.53456       -1.35445
H         -4.72949       -3.33761        0.34899
H          1.24461       -0.15535       -0.59394
H          2.91482        0.26000       -0.92217
H          1.39444        0.99990        1.67018
H          1.80904        2.10748        0.34331
H          3.09199        1.39997        1.34315
