75

C         10.95907       -0.03933        7.87401
C         10.88605        1.12585        6.88505
C          9.47781        1.35818        6.32780
C          9.39946        2.52928        5.34394
C          7.98998        2.76307        4.78825
C          7.88738        3.93586        3.82806
O          8.64540        3.63648        2.63403
C          8.78384        4.73081        1.75213
C          9.79318        4.26570        0.69855
O         10.07925        5.20695       -0.30742
C          9.18653        5.15301       -1.42635
C          9.57915        6.23315       -2.41946
C          9.35465        7.63622       -1.83381
C          9.99924        8.76773       -2.63199
C          9.54439        8.93305       -4.11977
Br         7.59540        9.08138       -4.30098
F         10.12507       10.00259       -4.68302
F          9.95175        7.83626       -4.82071
Br         9.68578       10.45963       -1.68820
F         11.36350        8.55747       -2.69240
N          9.29645        3.82706       -2.03926
C          9.29885        2.76520       -1.21525
N          9.22512        1.51050       -1.71732
C          9.08231        1.26923       -3.14120
O         10.27250        1.71965       -3.77641
C         10.52553        1.26888       -5.08441
C          9.47558        0.97630       -5.95955
C          9.73120        0.56141       -7.27534
C          8.60098        0.22063       -8.21187
C         11.06804        0.46284       -7.67886
C         12.10331        0.75966       -6.79226
C         11.87604        1.16573       -5.46888
C         13.06293        1.45045       -4.55656
C         13.15725        2.92257       -4.11460
C         13.14426        0.49267       -3.35301
N          9.32218        2.99111        0.10002
H         11.98224       -0.18715        8.24501
H         10.63489       -0.98099        7.40637
H         10.31215        0.13715        8.74588
H         11.58225        0.94493        6.04846
H         11.23632        2.04914        7.37588
H          8.78045        1.53554        7.16492
H          9.12564        0.43662        5.83162
H         10.10015        2.35379        4.51105
H          9.74413        3.45006        5.84591
H          7.29112        2.96003        5.61787
H          7.61808        1.85396        4.28649
H          8.29998        4.85374        4.28678
H          6.83716        4.13344        3.54681
H          9.20007        5.62108        2.25822
H          7.81830        5.01281        1.28594
H         10.75289        4.06224        1.20068
H          8.14502        5.27561       -1.07789
H          8.98167        6.09092       -3.33095
H         10.63850        6.09086       -2.68066
H          9.80625        7.69324       -0.83422
H          8.28298        7.85028       -1.72891
H          9.73668        3.71091       -2.95462
H          9.60160        0.75963       -1.14610
H          8.19716        1.82105       -3.49968
H          8.92729        0.19176       -3.29893
H          8.43808        1.08688       -5.63793
H          7.66668        0.71760       -7.91990
H          8.41075       -0.86385       -8.21966
H          8.83761        0.51433       -9.24283
H         11.30344        0.15034       -8.69770
H         13.13755        0.66827       -7.13183
H         13.95300        1.25202       -5.17568
H         12.33504        3.19245       -3.43652
H         13.12928        3.60133       -4.97769
H         14.10085        3.09640       -3.57819
H         12.32080        0.66504       -2.64586
H         14.08854        0.64497       -2.81130
H         13.10613       -0.55661       -3.67545
H          9.04409        2.27573        0.76911
