45

C          1.61912        2.18199        1.19762
C          2.74573        1.27608        0.69413
C          3.33464        1.74071       -0.64238
C          4.46843        0.85119       -1.16384
C          5.02438        1.33223       -2.50809
C          6.17109        0.46213       -3.03941
C          6.68903        0.93024       -4.38531
C          7.84189        0.11229       -4.98470
N          8.54134        1.09861       -5.89204
C          7.92811        2.51537       -5.46281
O          7.30774        2.23278       -4.25901
C          8.97129        3.56713       -5.30039
C          8.96739        4.69794       -6.00833
C          8.45643        0.79983       -7.36370
C          9.52440        1.59299       -8.12164
O         10.71573        1.37352       -7.34485
C          9.65396        1.11284       -9.56103
H          1.21082        1.82205        2.15137
H          0.78869        2.22605        0.47734
H          1.97416        3.21107        1.35642
H          2.37102        0.24403        0.58689
H          3.54858        1.22943        1.44922
H          3.70451        2.77588       -0.53643
H          2.52974        1.78443       -1.39735
H          4.10618       -0.18683       -1.26439
H          5.28260        0.81894       -0.41919
H          5.37624        2.37129       -2.40887
H          4.21028        1.35205       -3.25341
H          5.83252       -0.58181       -3.15210
H          7.00996        0.44738       -2.32358
H          5.85789        1.00324       -5.11452
H          7.51849       -0.76001       -5.56235
H          8.54669       -0.19936       -4.20436
H          9.55812        1.13301       -5.70173
H          7.21162        2.74608       -6.27429
H          9.71244        3.38722       -4.51631
H          8.20723        4.90110       -6.76588
H          9.71479        5.47311       -5.84164
H          7.44161        1.02430       -7.71548
H          8.64944       -0.27537       -7.48052
H          9.26913        2.66746       -8.10928
H         11.44943        1.88955       -7.71507
H          9.94575        0.05471       -9.59659
H         10.41557        1.70006      -10.09110
H          8.70698        1.23977      -10.10480
