80

C          1.01568        0.02445       -0.51920
C          2.50547       -0.07937       -0.18468
C          3.16551       -1.33949       -0.75549
C          4.65913       -1.44789       -0.43449
C          5.31209       -2.70494       -1.01915
C          6.83395       -2.73247       -0.83011
C          7.44722       -3.98418       -1.45983
S          9.27170       -3.86969       -1.29987
C          9.80291       -5.27714       -2.13310
N         11.05170       -5.69491       -2.24532
N         11.01280       -6.83591       -2.99802
C          9.75930       -7.05742       -3.31758
O          8.92127       -6.09970       -2.79256
C          9.29914       -8.21229       -4.06848
C         10.10102       -9.35932       -4.01972
C          9.71702      -10.50282       -4.69993
C          8.51042      -10.49988       -5.40163
C          7.72749       -9.35467       -5.46530
N          8.14316       -8.21160       -4.82005
C          7.42611       -6.93490       -5.05928
C          8.17172       -6.04692       -6.08624
O          7.36144       -4.93698       -6.37874
C          7.62194       -3.74350       -5.60764
C          6.31253       -2.99460       -5.41829
C          6.48011       -1.63128       -4.73822
C          5.14511       -0.90773       -4.52388
C          5.28996        0.43881       -3.81384
C          6.41092       -9.37678       -6.18077
C          5.22506       -9.23038       -5.17690
O          5.42899       -9.10074       -3.97216
N          4.00115       -9.25057       -5.75089
C          2.75575       -9.13123       -4.98556
C          1.62292       -9.92444       -5.63352
C          0.29489       -9.76561       -4.88277
C         -0.85312      -10.54010       -5.53380
H          0.57026        0.93288       -0.09185
H          0.45632       -0.83617       -0.12314
H          0.85037        0.05387       -1.60658
H          2.64072       -0.06335        0.90974
H          3.03389        0.81032       -0.56690
H          3.02800       -1.35512       -1.85147
H          2.64077       -2.23237       -0.37201
H          4.80576       -1.43341        0.65886
H          5.17854       -0.55484       -0.82123
H          5.08339       -2.76697       -2.09659
H          4.86485       -3.60272       -0.55941
H          7.08330       -2.69188        0.24225
H          7.27562       -1.83311       -1.29030
H          7.19358       -4.04704       -2.52662
H          7.10947       -4.89968       -0.95585
H         11.00895       -9.31474       -3.42143
H         10.33426      -11.40009       -4.66073
H          8.15719      -11.39698       -5.90690
H          7.28420       -6.42201       -4.10712
H          6.43307       -7.15355       -5.44774
H          8.31946       -6.61472       -7.01952
H          9.16994       -5.75221       -5.71659
H          8.36132       -3.12785       -6.14996
H          8.06893       -4.01080       -4.63280
H          5.62294       -3.62693       -4.83305
H          5.84481       -2.86261       -6.40708
H          7.14818       -0.99501       -5.34302
H          6.98777       -1.75445       -3.76516
H          4.46884       -1.55980       -3.94590
H          4.65425       -0.76065       -5.50005
H          5.78260        0.32579       -2.83688
H          4.31144        0.90523       -3.63741
H          5.89201        1.14294       -4.40575
H          6.32694      -10.33772       -6.70549
H          6.34718       -8.59507       -6.95348
H          3.92707       -9.34570       -6.75951
H          2.47927       -8.06615       -4.90149
H          2.96792       -9.48876       -3.96889
H          1.90326      -10.98993       -5.67795
H          1.48871       -9.59038       -6.67828
H          0.03517       -8.69528       -4.82828
H          0.42515      -10.10081       -3.84063
H         -1.02609      -10.20650       -6.56761
H         -1.79039      -10.39972       -4.97974
H         -0.64319      -11.61913       -5.56329
