64

C         12.15656       -3.94169        0.18179
C         11.10619       -2.85302        0.41554
C         11.40005       -1.55625       -0.34747
C         10.35773       -0.45881       -0.10498
C         10.62908        0.81822       -0.91227
C          9.60018        1.89762       -0.63169
O          9.85185        3.01979       -1.51433
C          8.93696        4.06809       -1.35530
C          9.05090        4.97220       -2.54740
N          9.77125        4.63531       -3.57589
C          9.83243        5.53032       -4.73909
C          8.89967        6.73738       -4.41511
S          8.25940        6.48637       -2.65464
C          7.76264        6.80898       -5.35854
N          7.35473        5.88621       -6.17795
N          6.22206        6.37696       -6.81168
C          6.01645        7.57652       -6.31212
O          6.97229        7.92603       -5.37640
S          4.77293        8.72624       -6.62355
C          3.74975        7.77485       -7.81471
C          2.43916        8.53233       -8.03309
C          1.52148        7.79646       -9.02056
C          0.18729        8.51586       -9.23309
C         11.29166        5.89539       -5.09794
C         12.09092        4.61824       -5.43169
O         12.10731        3.63958       -4.37295
C         11.32999        6.86594       -6.29980
C         12.71066        7.47155       -6.57641
H         11.91085       -4.85952        0.73249
H         13.15347       -3.61407        0.51207
H         12.23092       -4.20461       -0.88395
H         11.03668       -2.63271        1.49416
H         10.11231       -3.22911        0.11943
H         11.45602       -1.77476       -1.42842
H         12.39859       -1.18159       -0.06200
H         10.32654       -0.21818        0.97182
H          9.35590       -0.84539       -0.35985
H         10.61666        0.58831       -1.99012
H         11.63349        1.20690       -0.67947
H          9.65714        2.24228        0.41684
H          8.57462        1.52728       -0.81620
H          9.10974        4.65633       -0.43087
H          7.88689        3.70879       -1.31181
H         10.40683        3.81730       -3.55147
H          9.37782        4.98804       -5.58651
H          9.44252        7.69060       -4.37681
H          3.58157        6.77848       -7.38591
H          4.32368        7.66481       -8.74416
H          2.64847        9.54719       -8.41045
H          1.91928        8.65644       -7.06884
H          1.33714        6.77452       -8.65025
H          2.04183        7.68330       -9.98569
H         -0.37021        8.61263       -8.29002
H         -0.44849        7.96738       -9.94021
H          0.33693        9.52798       -9.63636
H         11.75150        6.38684       -4.21999
H         13.11859        4.88555       -5.71171
H         11.63186        4.11792       -6.29918
H         12.89737        3.76896       -3.82641
H         10.62232        7.69118       -6.12648
H         10.95606        6.34199       -7.19526
H         13.11612        7.96919       -5.68357
H         12.64221        8.22454       -7.37147
H         13.44276        6.72316       -6.90708
