68

N          0.14693        0.08439       -0.89097
C          1.59661        0.06652       -0.69314
C          2.28338        0.95738       -1.73347
C          3.79514        1.05855       -1.52159
C          4.47332        1.99253       -2.54740
C          5.93939        2.15039       -2.31501
N          6.90456        1.42554       -2.99990
C          8.12982        1.73175       -2.55212
N          7.98907        2.64496       -1.58177
C          6.62782        2.92466       -1.40546
C          6.10576        3.84980       -0.36186
C          6.21852        3.23695        1.04900
C          5.55132        4.11955        2.09156
C          5.65009        3.62231        3.58222
C          7.06191        3.26496        4.20256
C          8.25588        4.30015        4.21255
C          8.15689        5.68594        4.96824
C          7.89987        5.77099        6.52697
C          8.88134        5.09473        7.56739
C         10.40041        5.50923        7.56127
F         10.53740        6.84485        7.57167
F         10.98196        5.00045        8.65911
F         11.03107        5.01277        6.47833
F          8.38588        5.42152        8.78650
F          8.81691        3.74569        7.42162
F          7.86360        7.09872        6.80289
F          6.67009        5.25021        6.77253
F          9.33057        6.32238        4.70694
F          7.15529        6.39461        4.39018
F          9.32646        3.62309        4.70108
F          8.52947        4.61164        2.90976
F          6.83961        2.85067        5.46784
F          7.54479        2.19031        3.49340
F          5.05072        4.53419        4.37959
F          4.94129        2.45505        3.65337
F          6.04043        5.39713        2.02927
F          4.20368        4.20348        1.82832
C          9.07904        3.20702       -0.82020
C          9.50952        4.50602       -1.08421
C         10.53735        5.06007       -0.32136
C         11.11967        4.29933        0.69498
C         10.69345        2.99684        0.96198
C          9.65756        2.42890        0.20751
O          9.13736        1.18698        0.38468
C          9.67721        0.36846        1.43896
H         -0.33273       -0.36415       -0.11092
H         -0.11575       -0.43370       -1.73075
H          2.05105       -0.94619       -0.72315
H          1.79907        0.46921        0.31250
H          1.82413        1.95792       -1.68815
H          2.07460        0.56725       -2.74544
H          4.25932        0.05956       -1.57527
H          3.99743        1.43733       -0.50616
H          4.00154        2.98642       -2.50686
H          4.30137        1.62142       -3.57037
H          6.71569        0.76790       -3.75162
H          9.06972        1.32513       -2.90461
H          5.05553        4.06977       -0.59613
H          6.64528        4.80685       -0.39228
H          7.27208        3.10766        1.31560
H          5.74511        2.24661        1.08524
H          9.03660        5.07193       -1.88784
H         10.87863        6.07462       -0.51999
H         11.92112        4.72448        1.29918
H         11.15924        2.43038        1.76594
H          9.55458        0.85473        2.41711
H         10.73818        0.14216        1.25752
H          9.09388       -0.55698        1.41344
