98

C          1.13697       -0.54927        0.07873
C          2.64456       -0.28836        0.12368
C          3.01003        1.11770        0.61433
C          4.51595        1.39733        0.59088
C          4.90765        2.78773        1.10414
C          6.40860        3.06951        0.97921
C          6.85051        4.43430        1.51909
C          8.35093        4.68565        1.33410
C          8.85455        6.01973        1.89667
C         10.35445        6.22719        1.65905
C         10.93056        7.51997        2.24875
C         12.43436        7.65704        1.98509
C         13.10092        8.87700        2.63285
C         14.61558        8.88945        2.39965
C         15.37521       10.02111        3.10590
C         16.88959        9.81746        2.95215
C         17.80998       10.89614        3.55161
C         17.56024       11.12686        5.04142
C         18.53152       12.09755        5.74759
C         17.80604       12.94552        6.79636
C         18.67988       14.02894        7.45032
N         17.87688       15.12337        7.97967
C         17.08721       15.06885        9.10530
C         16.34559       16.23860        9.17070
C         16.69418       17.02493        8.03412
C         17.63297       16.30800        7.31456
O         19.20253       10.51456        3.46148
C         19.63934       10.20658        2.17311
N         19.21158       11.26142        1.23620
C         18.33869       12.22237        1.57244
N         18.10329       13.25269        0.73949
N         17.70517       12.17863        2.76134
C         17.05573       13.38479        3.24100
O         15.92869       13.68334        2.41473
C         15.06994       14.65150        3.02892
O         14.57991       14.11993        4.22597
C         14.38286       15.08133        5.28452
C         13.97873       14.30869        6.54101
O         13.71247       15.18482        7.61814
H          0.91378       -1.56693       -0.27055
H          0.63051        0.15312       -0.60013
H          0.68024       -0.43251        1.07303
H          3.07320       -0.44188       -0.88151
H          3.13010       -1.03592        0.77384
H          2.62327        1.25836        1.63931
H          2.49039        1.86732       -0.00857
H          4.88783        1.27548       -0.44208
H          5.03923        0.63031        1.18905
H          4.59801        2.89050        2.15909
H          4.34335        3.55681        0.54764
H          6.70113        2.98918       -0.08285
H          6.97081        2.27653        1.50385
H          6.59264        4.50719        2.59028
H          6.27868        5.23338        1.01518
H          8.59399        4.63259        0.25795
H          8.91466        3.86205        1.80737
H          8.64268        6.06534        2.97937
H          8.28903        6.85162        1.44156
H         10.55341        6.20430        0.57291
H         10.90574        5.36789        2.08068
H         10.74538        7.54079        3.33701
H         10.39666        8.39177        1.83241
H         12.61076        7.68144        0.89521
H         12.94116        6.74521        2.34818
H         12.89935        8.87070        3.71815
H         12.65053        9.80627        2.24379
H         14.81917        8.93662        1.31519
H         15.02787        7.92251        2.73856
H         15.09952       10.02913        4.17211
H         15.07289       10.99866        2.69692
H         17.10644        9.71259        1.87669
H         17.18018        8.86454        3.42291
H         17.60644       10.13230        5.50629
H         16.51985       11.45801        5.17133
H         19.00918       12.76590        5.01240
H         19.35881       11.53276        6.19954
H         17.36445       12.30127        7.57257
H         16.95726       13.45988        6.31730
H         19.36788       14.46285        6.70952
H         19.30062       13.61087        8.25627
H         17.12666       14.21606        9.77524
H         15.66991       16.51612        9.97393
H         16.32205       18.01430        7.78913
H         18.17545       16.55427        6.40707
H         19.25984        9.23516        1.80804
H         20.73713       10.17712        2.21291
H         19.50592       11.18890        0.26746
H         18.64470       13.37444       -0.10683
H         17.22494       13.76123        0.85263
H         17.77446       14.22527        3.21209
H         16.71993       13.22200        4.26632
H         14.27181       14.81746        2.28817
H         15.62225       15.59558        3.21653
H         13.58624       15.79572        5.01850
H         15.31716       15.64761        5.46008
H         14.76189       13.56824        6.79052
H         13.05220       13.75071        6.34040
H         14.56123       15.50905        7.97998
