56

C          9.56939        9.74864        1.45833
C          8.99670        8.79896        0.71118
C          9.07241        7.36752        1.08983
O          9.65716        6.91243        2.06668
O          8.38909        6.61067        0.19500
C          8.35251        5.18117        0.44681
C          9.63852        4.49362       -0.00091
C          9.67383        3.01321        0.41609
C         11.09275        2.43404        0.54700
C         11.97856        3.11975        1.60067
C         11.41815        3.01085        3.04395
C         12.14579        3.90253        4.00891
C         11.90903        5.29041        3.94228
C         12.58422        6.16266        4.76923
N         13.48769        5.69763        5.67036
C         13.71295        4.36676        5.78332
C         13.06846        3.43300        4.97568
C         13.37433        1.96729        5.20459
C         14.27705        1.28502        4.15670
C         15.68018        1.86008        4.06976
F         16.27975        1.92152        5.29228
F         16.46591        1.11573        3.26383
F         15.68096        3.13399        3.57022
C         14.19076        6.64423        6.57142
C         13.46937        6.83451        7.91015
O         13.43328        5.53833        8.51161
C         14.20579        7.86128        8.76633
H          9.50997       10.80122        1.18458
H         10.10692        9.48614        2.37071
H          8.44637        9.03224       -0.20088
H          7.47698        4.82850       -0.11298
H          8.18293        5.02149        1.52190
H         10.47613        5.03819        0.45579
H          9.75504        4.58988       -1.09053
H          9.11054        2.40566       -0.30758
H          9.13884        2.88941        1.37356
H         11.60989        2.50694       -0.42313
H         11.02061        1.35771        0.77239
H         12.10669        4.18370        1.35033
H         12.98918        2.68555        1.56640
H         11.43533        1.96250        3.37148
H         10.36373        3.32627        3.03482
H         11.18160        5.70467        3.23846
H         12.43419        7.24053        4.74105
H         14.43044        4.07388        6.54743
H         12.42945        1.40664        5.24265
H         13.83708        1.85243        6.19430
H         13.84636        1.33195        3.14788
H         14.38475        0.22336        4.41749
H         14.27708        7.60132        6.04406
H         15.19870        6.24615        6.74748
H         12.43892        7.18734        7.70852
H         13.02322        5.60982        9.38815
H         15.24212        7.54708        8.95154
H         13.70203        7.96936        9.73666
H         14.21194        8.85048        8.28758
