65

C          2.06250       -2.06605       -3.77792
C          3.50455       -1.57035       -3.65516
C          3.59191       -0.15161       -3.08276
C          5.03275        0.35490       -2.93007
C          5.04520        1.77510       -2.39285
O          6.41471        2.24235       -2.10034
C          7.06619        2.86739       -3.07683
O          6.67939        3.10273       -4.20238
C          8.46946        3.26725       -2.57281
N          9.01154        4.33103       -3.40215
N          8.90436        5.62976       -2.99206
C          9.32690        6.35162       -4.00943
N          9.68091        5.51267       -5.06408
C          9.46440        4.24905       -4.64765
C         10.29283        5.89429       -6.33312
C         11.69871        5.27665       -6.46755
O         12.02584        4.26181       -5.88643
O         12.42314        6.00443       -7.31110
C         13.76883        5.49063       -7.65834
C         13.70908        4.62845       -8.90680
C         13.27157        5.37723      -10.16995
C         13.16305        4.47104      -11.39973
C         12.73884        5.22651      -12.66027
C          9.40128        7.83968       -4.04472
C          8.79846        8.51215       -2.80561
C          8.84031       10.03898       -2.90989
C          8.08385       10.72738       -1.76710
N          6.65861       10.36957       -1.79969
H          2.02117       -3.07996       -4.19693
H          1.47092       -1.41020       -4.43351
H          1.56523       -2.08996       -2.79727
H          3.99209       -1.59302       -4.64390
H          4.08057       -2.25736       -3.01335
H          3.08980       -0.12539       -2.10041
H          3.02641        0.53648       -3.73440
H          5.54633        0.32418       -3.90395
H          5.58954       -0.30070       -2.24195
H          4.54277        1.84574       -1.42028
H          4.59101        2.48352       -3.09774
H          9.13422        2.39343       -2.60851
H          8.43010        3.63923       -1.54409
H          9.63578        3.34533       -5.21898
H         10.33401        6.98595       -6.39301
H          9.67313        5.53293       -7.16676
H         14.15150        4.94222       -6.78946
H         14.35340        6.40560       -7.81529
H         13.05155        3.76395       -8.71747
H         14.71971        4.21007       -9.04940
H         13.98806        6.19147      -10.37441
H         12.29842        5.86600       -9.99476
H         12.44143        3.66337      -11.19021
H         14.13175        3.97388      -11.57293
H         11.76569        5.72041      -12.52006
H         12.64724        4.55067      -13.52042
H         13.46983        6.00449      -12.92374
H          8.87592        8.19061       -4.95038
H         10.45719        8.13937       -4.17240
H          9.34065        8.18099       -1.90654
H          7.75434        8.19306       -2.67882
H          8.39500       10.35623       -3.86978
H          9.88266       10.39738       -2.91805
H          8.27232       11.81537       -1.82175
H          8.49369       10.38611       -0.80359
H          6.17336       10.90690       -2.51986
H          6.20788       10.60620       -0.91631
