41

C          1.28523        0.15653       -0.01056
C          2.48703        0.04127        0.01332
N          3.82129       -0.12039        0.04063
C          4.59084       -1.25959        0.05214
C          4.04835       -2.63963        0.04091
C          5.14510       -3.71334        0.06678
C          4.55066       -5.12245        0.06890
C          5.65407       -6.18213        0.10134
O          6.83087       -5.92102        0.13472
O          5.23492       -7.47642        0.09152
N          5.87341       -0.88454        0.07854
N          5.93170        0.44206        0.08498
N          4.72397        0.92524        0.06296
C          4.33923        2.35445        0.07119
C          5.56240        3.26396        0.10403
C          5.10687        4.72793        0.15179
C          6.22779        5.75422        0.17340
C          7.58207        5.41140        0.27716
C          8.56874        6.40323        0.30789
C          8.21485        7.75041        0.23632
C          6.86532        8.10346        0.13069
C          5.88372        7.11423        0.09857
H          0.21746        0.26315       -0.03204
H          3.40473       -2.74456       -0.85148
H          3.36677       -2.74207        0.90505
H          5.78238       -3.58211        0.95174
H          5.80993       -3.59530       -0.79968
H          3.92603       -5.29190       -0.82499
H          3.89369       -5.27496        0.94253
H          4.26341       -7.53186        0.06358
H          3.69649        2.49694        0.95466
H          3.72568        2.51701       -0.82917
H          6.18470        3.08033       -0.78385
H          6.17370        3.02104        0.98502
H          4.47312        4.87953        1.04344
H          4.45798        4.93612       -0.71624
H          7.89372        4.36730        0.33619
H          9.61765        6.11599        0.38882
H          8.98433        8.52234        0.26083
H          6.57688        9.15340        0.07108
H          4.83277        7.40105        0.01391
