68

C          3.93459        1.85859        2.03416
C          4.52770        0.46654        1.80592
C          5.40879        0.37998        0.55483
C          5.99031       -1.01616        0.31276
C          6.80943       -1.12663       -0.97696
C          7.35217       -2.53881       -1.22302
C          8.04335       -2.69423       -2.58438
C          8.50666       -4.12503       -2.80269
O          8.96900       -4.32910       -4.18619
C         10.27337       -4.19719       -4.42486
O         11.14191       -3.93481       -3.61341
C         10.55411       -4.46750       -5.91152
C         11.96869       -4.20384       -6.27878
N         12.34767       -3.25995       -7.10111
N         13.71623       -3.34558       -7.14456
C         14.17277       -4.33327       -6.35304
N         15.45978       -4.64564       -6.12521
N         13.07148       -4.90725       -5.79386
C         13.08814       -6.00437       -4.80409
C         13.92544       -7.12031       -5.22319
C         14.62693       -8.04950       -5.54839
C         14.54232       -2.39873       -7.93883
O         15.59155       -3.06362       -8.56172
C         15.21523       -3.80988       -9.75628
C         16.39405       -4.66680      -10.17784
C         16.09943       -5.47527      -11.44850
C         17.25273       -6.40169      -11.85008
C         16.96461       -7.22024      -13.11375
C         18.11046       -8.15979      -13.49709
H          3.30570        1.88535        2.93441
H          3.30986        2.17092        1.18405
H          4.72408        2.61468        2.15858
H          3.71280       -0.27276        1.72435
H          5.11851        0.16678        2.68812
H          6.23072        1.11325        0.63354
H          4.81663        0.68497       -0.32634
H          5.16607       -1.75030        0.27801
H          6.61697       -1.30767        1.17383
H          7.64643       -0.40771       -0.95074
H          6.17867       -0.82747       -1.83231
H          6.51821       -3.25918       -1.15881
H          8.05265       -2.81066       -0.41497
H          8.90502       -2.01146       -2.65610
H          7.34253       -2.41993       -3.38905
H          7.67754       -4.83694       -2.70328
H          9.32088       -4.40595       -2.12205
H          9.91763       -3.82131       -6.52979
H         10.26091       -5.50410       -6.14447
H         16.12364       -4.27641       -6.80643
H         15.65893       -5.56615       -5.73724
H         12.05215       -6.33953       -4.66901
H         13.41440       -5.59454       -3.83545
H         15.23237       -8.88950       -5.82590
H         14.98271       -1.66149       -7.25212
H         13.83593       -1.90612       -8.62547
H         14.93600       -3.08466      -10.53924
H         14.33285       -4.43643       -9.53486
H         16.65014       -5.35510       -9.35391
H         17.27145       -4.01975      -10.33384
H         15.87788       -4.78437      -12.27944
H         15.18543       -6.07677      -11.30047
H         17.47625       -7.08859      -11.01449
H         18.16762       -5.80327      -12.00203
H         16.75477       -6.53294      -13.95027
H         16.04111       -7.80515      -12.96465
H         19.03905       -7.60220      -13.68824
H         17.87350       -8.72893      -14.40580
H         18.31887       -8.88530      -12.69670
