92

C         11.64967       -6.44411        3.45232
C         10.98265       -5.26055        2.74711
C         11.52378       -5.01511        1.33386
C         10.80914       -3.88083        0.59262
C         11.35441       -3.62737       -0.81704
C         10.56716       -2.56035       -1.58553
C         11.13184       -2.27800       -2.98403
C         10.25154       -1.32519       -3.77321
O         10.88208       -1.04101       -5.04051
C         10.04199       -0.32090       -5.92077
C         10.76924        0.00126       -7.22755
C          9.99938        1.09136       -7.98928
C         10.55070        1.39505       -9.38474
C         10.67265        0.11409      -10.21381
C         11.50150       -0.95312       -9.49860
N         10.87744       -1.23175       -8.12984
C         11.40957       -2.49604       -7.50879
C         10.38444       -3.57841       -7.83680
O          9.29458       -3.28237       -8.31282
O         10.82581       -4.78629       -7.53912
C          9.94568       -5.92850       -7.87035
C         10.21579       -6.41326       -9.28718
C          9.33458       -7.61565       -9.64256
C         13.00152       -0.62284       -9.43125
O         13.43458       -0.77135      -10.76132
C         14.84204       -0.55221      -10.96703
C         15.10543       -0.65810      -12.46018
C         16.59263       -0.61078      -12.82841
C         16.81861       -0.62532      -14.34545
C         18.29520       -0.66813      -14.75111
C         18.51029       -0.60332      -16.26694
C         19.98147       -0.68329      -16.68656
C         20.19237       -0.58736      -18.20177
C         21.66252       -0.67487      -18.61971
H         11.23959       -6.59488        4.46018
H         12.73410       -6.29007        3.55542
H         11.50090       -7.37847        2.89066
H         11.11517       -4.34664        3.35051
H          9.89379       -5.43038        2.69302
H         11.43455       -5.94567        0.74530
H         12.60499       -4.79689        1.38991
H         10.88150       -2.95114        1.18398
H          9.73142       -4.11416        0.52869
H         11.33956       -4.57137       -1.39003
H         12.41526       -3.32853       -0.75315
H         10.55225       -1.62378       -1.00229
H          9.51442       -2.88212       -1.67005
H         11.23016       -3.22236       -3.54576
H         12.14376       -1.84964       -2.90345
H         10.09772       -0.37463       -3.22939
H          9.25605       -1.77282       -3.95580
H          9.73930        0.64333       -5.46997
H          9.10613       -0.88172       -6.13039
H         11.79891        0.31470       -7.00110
H         10.00897        1.99573       -7.36483
H          8.94191        0.78101       -8.06755
H         11.52804        1.89541       -9.30283
H          9.88696        2.10643       -9.89375
H         11.15350        0.30596      -11.18176
H          9.67237       -0.29515      -10.43287
H         11.41404       -1.90829      -10.03828
H          9.89274       -1.53170       -8.35085
H         11.49022       -2.36266       -6.41957
H         12.39398       -2.74467       -7.91604
H          8.90452       -5.61072       -7.73072
H         10.20993       -6.68115       -7.11787
H         11.27971       -6.67946       -9.37745
H         10.02389       -5.59024       -9.99285
H          9.50513       -8.46063       -8.96080
H          9.55336       -7.96172      -10.66050
H          8.26696       -7.35778       -9.60163
H         13.54258       -1.31241       -8.75203
H         13.18547        0.40374       -9.05808
H         15.41709       -1.31083      -10.40166
H         15.12448        0.44511      -10.57897
H         14.56563        0.15621      -12.97051
H         14.66339       -1.60047      -12.82235
H         17.11247       -1.47001      -12.37037
H         17.05869        0.29313      -12.39942
H         16.34273        0.26672      -14.78907
H         16.29611       -1.49428      -14.78283
H         18.75603       -1.58963      -14.35423
H         18.83213        0.16912      -14.27163
H         18.07117        0.33255      -16.65546
H         17.94881       -1.42196      -16.75114
H         20.41625       -1.62901      -16.31716
H         20.54884        0.12298      -16.18867
H         19.76123        0.36036      -18.56707
H         19.61959       -1.38895      -18.69873
H         22.25613        0.13430      -18.16856
H         21.77523       -0.60009      -19.71021
H         22.11230       -1.62832      -18.30440
