76

S          4.70779       -1.92246        2.02193
C          6.21491       -0.87372        2.14734
C          5.79402        0.54754        2.42335
O          5.60388        1.01455        3.52486
O          5.59910        1.24555        1.24947
C          5.16218        2.63087        1.33610
C          3.78187        2.80292        1.97512
N          2.59911        2.52874        1.06522
C          2.57765        1.15923        0.36251
C          2.36333        1.48313       -1.11635
C          1.57298        2.80541       -1.11136
C          2.30248        3.60522       -0.01173
C          1.59215        4.80116        0.61436
C          1.20486        5.88332       -0.40491
C          0.56515        7.09199        0.28038
C          0.21062        8.21783       -0.70370
N         -0.40305        9.35506       -0.04533
C         -1.75248        9.49387        0.21031
C         -1.92916       10.62087        0.99026
C         -0.64185       11.18015        1.22571
C          0.28095       10.37736        0.58194
C          0.06349        2.63559       -0.85449
C         -0.67759        2.00482       -2.04416
C         -2.09898        2.51086       -2.29635
C         -3.28154        1.99591       -1.38938
C         -3.40069        2.40382        0.13285
C         -3.49605        3.92728        0.52196
F         -4.37216        4.57921       -0.24873
F         -3.87901        4.01781        1.80493
F         -2.28323        4.52877        0.41106
F         -4.52657        1.81011        0.58910
F         -2.33674        1.87746        0.81778
F         -4.44253        2.36536       -1.98034
F         -3.20805        0.63019       -1.38856
F         -2.12888        3.88716       -2.28654
F         -2.44971        2.11307       -3.55950
C          6.23326        3.48067        2.05286
O          5.93065        4.88726        1.98076
C          6.31234        5.52786        0.82889
O          6.76655        4.95501       -0.13744
C          6.06809        7.01337        0.93881
S          4.43526        7.44482        0.23035
H          4.66533       -1.96050        0.67011
H          6.81110       -0.96920        1.23503
H          6.78501       -1.23866        3.00837
H          5.14766        2.94786        0.28339
H          3.67558        3.84408        2.30750
H          3.67795        2.15127        2.85018
H          1.78343        2.55325        1.68959
H          1.74952        0.58953        0.79969
H          3.50994        0.63265        0.57727
H          1.84027        0.66700       -1.62968
H          3.33039        1.61741       -1.62157
H          1.70823        3.33499       -2.06602
H          3.28663        3.91536       -0.39552
H          2.25439        5.26536        1.36231
H          0.68833        4.46411        1.15220
H          0.50951        5.47743       -1.15705
H          2.10763        6.19505       -0.95496
H          1.24847        7.49426        1.04489
H         -0.35108        6.78383        0.80883
H         -0.48364        7.84946       -1.47466
H          1.11492        8.56645       -1.22725
H         -2.47008        8.79037       -0.20062
H         -2.88179       11.01113        1.33343
H         -0.41728       12.08251        1.78503
H          1.36099       10.45343        0.50186
H         -0.36454        3.62485       -0.66322
H         -0.12210        2.04429        0.05374
H         -0.71855        0.90927       -1.98435
H         -0.15526        2.25022       -2.98215
H          7.20045        3.27785        1.57398
H          6.27879        3.25114        3.12085
H          6.85917        7.55675        0.41110
H          6.03019        7.33389        1.98586
H          4.77635        7.21173       -1.05980
