58

C          0.71426       -3.70116        4.24977
C          2.22390       -3.94737        4.28617
C          3.03707       -2.66271        4.47510
C          4.54991       -2.89792        4.52482
C          5.35108       -1.60300        4.70143
C          6.85000       -1.80327        4.82565
O          7.36708       -2.30490        3.55923
C          8.73345       -2.50855        3.52678
N          9.14697       -3.77001        4.21514
C          9.74569       -3.83183        5.46572
N          9.85983       -5.04916        5.90679
N          9.31585       -5.82851        4.90560
C          8.85343       -5.06472        3.87751
N          8.21249       -5.55041        2.80931
C          7.82011       -4.86211        1.56764
C          7.04230       -5.83829        0.68391
C          6.66896       -5.20699       -0.66297
C          5.93953       -6.21431       -1.55612
S          5.53661       -5.43609       -3.14126
O          4.54270       -4.41161       -2.92138
O          6.76166       -5.16324       -3.85539
Cl         4.59792       -7.02910       -4.08861
C          9.20727       -7.25396        5.04092
C          8.56134       -7.77737        6.16478
C          8.45376       -9.16251        6.29498
C          8.97374      -10.00682        5.30859
C          9.62448       -9.47018        4.19429
C          9.75552       -8.08576        4.05688
H          0.15729       -4.63713        4.10995
H          0.44101       -3.02459        3.42717
H          0.36427       -3.24246        5.18579
H          2.54004       -4.44160        3.35139
H          2.46391       -4.65177        5.10064
H          2.71607       -2.16218        5.40480
H          2.80341       -1.96038        3.65664
H          4.86945       -3.40689        3.60003
H          4.78438       -3.58629        5.35657
H          5.02099       -1.08599        5.61739
H          5.15198       -0.91074        3.86803
H          7.07794       -2.53016        5.62649
H          7.36492       -0.85367        5.05332
H          9.30712       -1.71103        4.03009
H          9.04543       -2.57093        2.47794
H         10.09362       -2.94879        5.99250
H          8.10872       -6.56410        2.81672
H          8.71957       -4.51392        1.03389
H          7.19801       -3.98987        1.81682
H          6.13273       -6.16319        1.21420
H          7.65763       -6.73757        0.50959
H          7.57729       -4.85888       -1.17806
H          6.02705       -4.32780       -0.50266
H          4.98220       -6.54612       -1.13268
H          6.55875       -7.08740       -1.80255
H          8.16442       -7.10665        6.92653
H          7.95876       -9.58271        7.17041
H          8.88199      -11.08780        5.41454
H         10.05271      -10.12868        3.43867
H         10.30930       -7.66181        3.21773
