109

C          5.71411        1.25097        2.98665
C          6.39958        1.59232        1.66095
C          6.09216        0.59098        0.54127
C          6.76382        0.93793       -0.79156
C          6.48824       -0.07834       -1.90510
C          7.13325        0.30050       -3.24252
C          6.89849       -0.73081       -4.35100
C          7.54942       -0.29944       -5.67177
N          7.41372       -1.28792       -6.75327
C          6.42989       -1.25792       -7.67342
S          6.29931       -2.34566       -8.94242
S          5.26895        0.09861       -7.42271
C          4.09237       -0.17476       -8.76425
C          3.01385       -1.19323       -8.38460
C          2.14149       -1.57290       -9.61281
C          1.11890       -2.59314       -9.22478
C          0.00586       -2.15224       -8.46538
N         -0.94132       -2.93636       -7.98085
N         -0.79640       -4.22233       -8.27293
C          0.17801       -4.78343       -9.00405
C          1.20945       -3.96809       -9.51319
C          2.30920       -4.57589      -10.34436
C          3.72487       -4.71381       -9.70127
C          3.73968       -5.56920       -8.42333
F          3.31322       -6.84904       -8.68139
F          4.96122       -5.65375       -7.88845
F          2.90055       -5.05701       -7.47415
O          4.63471       -5.21912      -10.64787
C          0.02816       -6.26929       -9.20319
O         -1.09911       -6.67863       -8.45176
C         -1.43256       -8.05188       -8.53352
C         -1.99028       -8.51793       -9.72465
C         -2.40023       -9.84980       -9.85018
C         -3.03506      -10.35654      -11.11892
C         -2.22622      -10.68508       -8.73563
C         -1.67880      -10.19750       -7.55196
C         -1.26333       -8.86226       -7.40273
C         -0.72308       -8.39456       -6.05786
C          0.70327       -7.81657       -6.10813
C         -1.69755       -7.44062       -5.33977
C          8.46543       -2.31795       -6.81273
C          9.66843       -1.88215       -7.65599
C         10.74719       -2.96600       -7.73259
C         11.98869       -2.51129       -8.50696
C         13.06305       -3.59453       -8.64316
C         14.32520       -3.10967       -9.36336
C         15.39009       -4.19701       -9.54347
C         16.65648       -3.69302      -10.24027
H          5.95933        1.98399        3.76722
H          6.02279        0.26050        3.35328
H          4.61918        1.23550        2.87834
H          7.49127        1.64087        1.81211
H          6.09553        2.60249        1.33775
H          4.99876        0.53221        0.39495
H          6.40793       -0.41853        0.85949
H          7.85427        1.02165       -0.63926
H          6.42847        1.93786       -1.11878
H          5.39790       -0.18528       -2.04316
H          6.85252       -1.07222       -1.59113
H          8.21907        0.43810       -3.09697
H          6.74592        1.28204       -3.56760
H          5.81846       -0.87839       -4.51056
H          7.30685       -1.70784       -4.04433
H          8.62757       -0.13300       -5.52610
H          7.13783        0.66278       -6.01152
H          4.67018       -0.51992       -9.63531
H          3.66394        0.81587       -8.97620
H          2.37990       -0.79104       -7.58002
H          3.49858       -2.09709       -7.99001
H          2.79119       -1.93577      -10.42003
H          1.62983       -0.67209       -9.98733
H         -0.12461       -1.09349       -8.23394
H         -1.51581       -4.86306       -7.91119
H          2.46836       -3.96051      -11.24086
H          2.00200       -5.56813      -10.70380
H          4.12666       -3.72824       -9.40689
H          4.43867       -6.15521      -10.82873
H          0.94115       -6.79157       -8.87069
H         -0.10089       -6.47677      -10.28322
H         -2.13377       -7.82361      -10.55611
H         -2.97037       -9.61839      -11.92823
H         -4.09949      -10.58530      -10.96001
H         -2.55497      -11.28343      -11.46313
H         -2.53500      -11.73046       -8.79347
H         -1.56737      -10.87012       -6.69901
H         -0.66767       -9.30844       -5.44419
H          0.72491       -6.80503       -6.53684
H          1.37958       -8.45641       -6.69126
H          1.11288       -7.73813       -5.09177
H         -1.77262       -6.47334       -5.85776
H         -1.35478       -7.24309       -4.31431
H         -2.70605       -7.87102       -5.28419
H          8.01608       -3.23006       -7.22662
H          8.77183       -2.52375       -5.77581
H         10.09966       -0.95908       -7.23330
H          9.31659       -1.63294       -8.66905
H         10.32390       -3.86743       -8.20821
H         11.04419       -3.26959       -6.71316
H         12.42232       -1.62703       -8.00758
H         11.68546       -2.17070       -9.51229
H         12.64132       -4.46007       -9.18382
H         13.33611       -3.96901       -7.64093
H         14.76037       -2.26260       -8.80381
H         14.04893       -2.70415      -10.35279
H         14.95913       -5.03390      -10.11901
H         15.65327       -4.61477       -8.55680
H         16.42947       -3.28417      -11.23589
H         17.39162       -4.49864      -10.37260
H         17.14088       -2.89438       -9.65890
