55

F          2.49346        1.10370       -1.70557
C          3.81201        0.97578       -2.18102
C          4.79665        1.57775       -1.18536
C          4.87742        0.82255        0.15009
C          3.68762        0.99545        1.10754
N          3.99462        2.15249        1.98161
C          5.28092        2.42333        2.11735
S          6.31060        1.46535        1.13731
C          5.84437        3.49591        2.98080
C          5.86209        4.85750        2.23124
C          6.44647        6.00684        3.07845
C          7.95149        5.81047        3.33704
C          8.59050        6.83705        4.29460
C         10.01771        6.48858        4.61442
C         11.12991        7.03848        4.09250
C         11.13214        8.15245        3.07877
C         12.49494        6.55860        4.51087
C          6.14107        7.34014        2.38027
C          2.92544        2.82112        2.73469
C          2.59530        2.09771        4.04921
C          1.66670        2.98177        4.91223
F          0.56431        3.37844        4.24466
F          1.27172        2.29645        6.00979
F          2.33487        4.09080        5.32303
O          1.99616        0.86394        3.71778
H          3.86914        1.50467       -3.14296
H          3.99599       -0.09724       -2.34840
H          4.54461        2.63620       -1.01236
H          5.78883        1.56546       -1.66364
H          5.06846       -0.24591       -0.01821
H          3.54050        0.11462        1.75026
H          2.75642        1.18654        0.56132
H          6.86912        3.21455        3.25896
H          5.26877        3.58761        3.91316
H          4.83430        5.11545        1.92811
H          6.44289        4.74580        1.30127
H          5.92432        6.00504        4.05393
H          8.49217        5.83696        2.37480
H          8.13607        4.80763        3.75913
H          8.00318        6.86452        5.22887
H          8.52357        7.84425        3.86088
H         10.15031        5.67654        5.33847
H         10.12819        8.48061        2.78502
H         11.66540        7.84106        2.16635
H         11.67466        9.02896        3.46699
H         12.43578        5.74293        5.24238
H         13.08057        7.37828        4.95709
H         13.07307        6.20327        3.64258
H          6.65589        7.40603        1.40956
H          6.46921        8.19191        2.98846
H          5.06347        7.46229        2.20142
H          2.03045        2.83659        2.09932
H          3.22315        3.85623        2.93409
H          3.51644        1.96115        4.64773
H          1.75898        0.39011        4.53354
