60

C          3.32815        4.53234       -1.68881
C          3.77548        3.13840       -1.24402
C          4.42347        2.32898       -2.37207
C          4.88549        0.93572       -1.93141
C          5.54510        0.13939       -3.06712
C          6.03337       -1.21202       -2.57408
O          6.61612       -2.02302       -3.66775
C          7.88353       -1.79045       -3.97256
O          8.63156       -0.97562       -3.45968
C          8.36601       -2.71568       -5.10234
N          9.72462       -2.29486       -5.39857
C         10.49936       -2.73207       -6.38365
N         11.72202       -2.23621       -6.65520
C         12.23703       -2.80085       -7.91481
C         11.36100       -4.08412       -8.06800
N         10.17173       -3.70131       -7.26415
C         11.96433       -5.40296       -7.58098
O         12.20816       -5.33038       -6.19237
C         12.78161       -6.53988       -5.67336
C         13.75179       -2.99192       -7.88454
O         14.12814       -3.37955       -9.20000
C         15.53201       -3.28705       -9.45097
O         16.30021       -4.17645       -8.69312
C         16.19749       -5.55274       -9.10488
C         16.88144       -6.39394       -8.04324
O         16.23057       -6.28330       -6.77388
H          2.86813        5.08833       -0.86101
H          2.58879        4.47370       -2.50121
H          4.17820        5.12636       -2.05622
H          2.91042        2.58153       -0.84765
H          4.48865        3.22849       -0.40762
H          5.28673        2.88908       -2.77182
H          3.70914        2.23110       -3.20793
H          4.02348        0.37186       -1.53619
H          5.59706        1.03810       -1.09428
H          6.39547        0.71058       -3.47029
H          4.82609       -0.00897       -3.88827
H          5.21089       -1.83930       -2.21025
H          6.79609       -1.10919       -1.79097
H          7.70286       -2.61269       -5.97499
H          8.31802       -3.75857       -4.74824
H         10.03870       -1.54758       -4.76668
H         12.00019       -1.31444       -6.33443
H         12.00029       -2.11775       -8.74847
H         11.07152       -4.21043       -9.11903
H          9.49065       -4.40981       -7.00554
H         12.88876       -5.59980       -8.15625
H         11.25738       -6.22682       -7.81513
H         12.88879       -6.39569       -4.59240
H         13.77181       -6.73326       -6.11771
H         12.11575       -7.40042       -5.86041
H         14.04097       -3.73933       -7.12858
H         14.23017       -2.02962       -7.61366
H         15.89493       -2.27821       -9.18987
H         15.62849       -3.47390      -10.53301
H         16.68800       -5.68879      -10.08603
H         15.13756       -5.84377       -9.19271
H         17.94461       -6.10933       -7.96570
H         16.83422       -7.45365       -8.33085
H         16.40761       -5.38636       -6.44843
