106

C          5.39338       -8.27143       -2.56981
C          6.10404       -7.00579       -2.08360
C          6.70841       -7.14721       -0.68185
C          7.40488       -5.87702       -0.18446
C          8.01078       -6.00871        1.21682
C          8.67667       -4.72101        1.71139
C          9.30334       -4.83817        3.10450
C          9.96398       -3.54095        3.58174
C         10.64009       -3.65934        4.95106
C         11.34509       -2.37386        5.39574
C         12.09564       -2.51913        6.72289
C         12.87756       -1.26516        7.12722
C         13.72624       -1.47468        8.38698
C         14.61224       -0.25988        8.69399
C         15.30992       -0.10827       10.05691
C         15.99037        1.27003       10.12707
C         16.74244        1.55329       11.42682
C         17.76527        0.45012       11.69137
C         17.09009       -0.90793       11.71704
N         16.32884       -1.25402       10.42109
C         17.30689       -1.44638        9.27384
O         18.23102       -2.40383        9.66334
C         19.07567       -2.84949        8.57116
C         19.89979       -4.03005        9.04791
C         20.84424       -4.55143        7.95705
C         21.63011       -5.79436        8.38890
C         22.58932       -6.30821        7.31053
C         23.35259       -7.57095        7.72275
C         24.32178       -8.07768        6.64978
C         25.06795       -9.35463        7.04955
C         26.07016       -9.83544        5.99374
C         26.79787      -11.12340        6.38728
C         15.66525       -2.59797       10.65694
C         14.48486       -2.60789       11.62849
O         14.19611       -1.72914       12.41812
O         13.84135       -3.76673       11.46742
C         12.70105       -4.02876       12.36627
C         13.15852       -4.69171       13.65004
H          4.97150       -8.13594       -3.57534
H          4.56725       -8.54887       -1.89794
H          6.08428       -9.12682       -2.61271
H          5.39538       -6.16005       -2.08782
H          6.90136       -6.73294       -2.79601
H          7.42704       -7.98612       -0.67775
H          5.91272       -7.42999        0.03030
H          6.68317       -5.04103       -0.19032
H          8.19861       -5.59273       -0.89802
H          8.74997       -6.82931        1.22059
H          7.22272       -6.31014        1.92931
H          7.93215       -3.90549        1.71435
H          9.45455       -4.41413        0.98985
H         10.05362       -5.64884        3.10003
H          8.53085       -5.14633        3.83103
H          9.20937       -2.73557        3.61320
H         10.71353       -3.22121        2.83619
H         11.37613       -4.48237        4.92058
H          9.89207       -3.95152        5.70876
H         10.60887       -1.55538        5.47450
H         12.05828       -2.06377        4.61170
H         12.79709       -3.36947        6.64536
H         11.38542       -2.78641        7.52482
H         12.18442       -0.42153        7.28459
H         13.53702       -0.96532        6.29394
H         14.33524       -2.37852        8.22059
H         13.06638       -1.69554        9.24283
H         13.96770        0.63353        8.64844
H         15.33932       -0.11217        7.87856
H         14.57638       -0.18650       10.86907
H         15.18374        2.00437        9.99148
H         16.66026        1.40633        9.26212
H         16.03221        1.60739       12.26749
H         17.23471        2.53293       11.36539
H         18.24631        0.58141       12.67152
H         18.57978        0.47649       10.95027
H         16.32748       -0.94979       12.50379
H         17.80616       -1.72494       11.85524
H         17.76618       -0.46685        9.06099
H         16.71650       -1.76990        8.39958
H         19.71923       -2.01041        8.25047
H         18.43219       -3.13319        7.71740
H         19.21701       -4.83304        9.36965
H         20.47884       -3.72842        9.93525
H         21.54969       -3.75374        7.66810
H         20.26373       -4.78916        7.04871
H         20.92141       -6.59587        8.66119
H         22.19854       -5.56741        9.30754
H         23.30987       -5.51190        7.05422
H         22.02235       -6.51130        6.38497
H         22.62999       -8.36895        7.96901
H         23.91135       -7.37258        8.65431
H         25.05429       -7.28450        6.41764
H         23.76684       -8.25817        5.71212
H         24.33634      -10.15726        7.25119
H         25.59840       -9.18501        8.00344
H         26.80838       -9.03666        5.80797
H         25.54368       -9.98690        5.03597
H         27.35479      -10.99684        7.32778
H         27.51632      -11.43176        5.61548
H         26.09039      -11.95357        6.53257
H         16.44421       -3.26745       11.04355
H         15.34116       -3.00577        9.69689
H         12.05815       -4.68449       11.76801
H         12.19018       -3.07564       12.55041
H         13.70220       -5.62295       13.44628
H         12.27646       -4.94098       14.25604
H         13.79442       -4.02341       14.24462
