83

C         13.03304        2.99982        9.99053
C         12.41201        2.74858        8.61423
C         12.93527        3.69937        7.53217
C         12.32935        3.45910        6.14601
C         12.86911        4.41026        5.07320
C         12.28778        4.16976        3.67638
C         12.85749        5.11376        2.61286
C         12.31195        4.86883        1.20245
C         12.91507        5.80486        0.15027
C         12.43004        5.53523       -1.27765
C         13.06266        6.46552       -2.31801
C         12.65416        6.14010       -3.76003
C         13.19747        7.10927       -4.82099
C         14.72928        7.16524       -4.89027
C         15.24582        8.01797       -6.05676
C         16.76230        8.17780       -6.03545
N         17.27392        9.10716       -7.07521
C         18.52060        8.74689       -7.41535
N         19.33205        9.45753       -8.20681
C         18.93391       10.60306       -9.05239
C         18.98766       11.92750       -8.28989
O         18.00722       11.87575       -7.24361
C         19.82504       10.62885      -10.30387
C         19.65559        9.41765      -11.22485
N         18.85807        7.56530       -6.85168
C         17.63001        6.91332       -6.31394
C         17.05490        5.90263       -7.30969
C         17.98403        4.71611       -7.59386
C         17.29302        3.62347       -8.42466
N         16.12637        3.09332       -7.71043
H         12.63774        2.30590       10.74526
H         12.82802        4.02249       10.34066
H         14.12584        2.87404        9.96443
H         11.31499        2.84367        8.68143
H         12.60529        1.70692        8.30646
H         14.03427        3.60663        7.46934
H         12.74010        4.74203        7.84001
H         11.23103        3.55771        6.20398
H         12.52194        2.41593        5.83895
H         13.96894        4.31778        5.02803
H         12.66856        5.45302        5.37674
H         11.18940        4.27645        3.71193
H         12.47920        3.12433        3.37642
H         13.95770        5.01598        2.59602
H         12.65429        6.15873        2.90665
H         11.21362        4.98015        1.20731
H         12.50733        3.82118        0.91306
H         14.01608        5.71683        0.17911
H         12.69106        6.85162        0.42188
H         11.33109        5.62969       -1.32035
H         12.65268        4.48696       -1.54460
H         14.16020        6.40923       -2.21459
H         12.79058        7.51130       -2.08763
H         11.55436        6.13030       -3.82921
H         12.97938        5.11427       -4.00780
H         12.80766        8.12400       -4.62826
H         12.80495        6.81337       -5.80811
H         15.11987        6.13634       -4.97153
H         15.13125        7.56988       -3.94679
H         14.80028        9.02481       -5.99084
H         14.92072        7.60024       -7.02200
H         17.06171        8.58034       -5.04986
H         17.06169       10.10829       -7.04595
H         20.26735        9.08944       -8.35185
H         17.88772       10.42689       -9.35646
H         18.76295       12.74550       -8.99447
H         19.99815       12.08659       -7.87468
H         18.01901       12.71002       -6.75026
H         20.87882       10.73316       -9.99075
H         19.58794       11.54749      -10.85950
H         19.90267        8.46908      -10.72625
H         20.31614        9.50466      -12.09608
H         18.62388        9.34003      -11.59486
H         19.57499        6.98659       -7.28091
H         17.87899        6.41342       -5.36789
H         16.79613        6.41202       -8.25347
H         16.11780        5.49386       -6.90514
H         18.32687        4.27740       -6.63999
H         18.89310        5.03006       -8.13642
H         18.04217        2.85693       -8.69659
H         16.93652        4.06190       -9.36997
H         16.41108        2.41866       -6.99930
H         15.50406        2.59773       -8.34753
