93

C         -0.40889        0.58117        0.01438
C          1.11614        0.53953        0.14276
C          1.82842        1.55403       -0.75865
C          3.35495        1.52745       -0.63120
C          4.06021        2.56011       -1.51605
C          5.58704        2.53867       -1.38947
C          6.28270        3.60447       -2.24186
C          7.81111        3.57098       -2.13947
C          8.49547        4.66586       -2.96357
C         10.02632        4.59960       -2.92198
C         10.68922        5.72885       -3.71949
C         12.23440        5.71094       -3.73161
C         12.80939        4.49846       -4.46815
N         12.55117        4.63990       -5.95905
C         13.18327        5.88260       -6.60361
C         12.63787        7.11697       -5.82990
C         12.85296        7.00180       -4.30912
C         13.18727        8.36963       -6.42785
N         12.82767        8.91469       -7.54858
N         13.67580        9.99391       -7.76843
C         14.49538       10.02958       -6.74462
O         14.24916        9.01524       -5.83645
S         15.75811       11.18506       -6.49844
C         16.50734       10.62248       -4.92032
C         17.72769       11.49834       -4.64659
C         14.70519        5.68757       -6.65547
C         15.36764        6.49567       -7.78191
C         16.82191        6.12053       -8.08852
C         17.97074        6.84578       -7.28002
C         18.13595        6.66727       -5.71793
C         18.39497        5.26377       -5.03718
C         19.63365        4.35813       -5.42108
C         21.12228        4.86696       -5.24422
C         21.68918        5.30146       -3.83158
C         21.65725        4.26678       -2.64546
F         22.17073        3.08499       -3.02049
F         22.38786        4.76201       -1.63423
F         20.39662        4.07858       -2.20704
F         22.98929        5.61389       -4.05272
F         21.03870        6.42289       -3.42321
F         21.89511        3.85063       -5.70007
F         21.29312        5.93647       -6.06345
F         19.49178        3.22503       -4.68360
F         19.50174        4.02794       -6.73012
F         18.43709        5.50804       -3.70447
F         17.28930        4.49062       -5.27406
F         19.12608        7.50457       -5.33883
F         16.97138        7.12297       -5.13784
F         19.15112        6.52939       -7.85617
F         17.75677        8.18804       -7.44357
F         17.01212        4.76433       -8.00430
F         17.06864        6.47894       -9.38600
H         -0.88916       -0.15518        0.67305
H         -0.72967        0.36424       -1.01544
H         -0.80530        1.57237        0.28099
H          1.47934       -0.47487       -0.09445
H          1.40295        0.72407        1.19196
H          1.46103        2.56887       -0.52374
H          1.54605        1.36848       -1.81017
H          3.72570        0.51744       -0.88035
H          3.63570        1.69969        0.42276
H          3.68860        3.56886       -1.26445
H          3.77965        2.39096       -2.57051
H          5.96354        1.53957       -1.67191
H          5.86812        2.67873       -0.33103
H          5.91900        4.60324       -1.94333
H          5.98620        3.47955       -3.29829
H          8.17671        2.58133       -2.46640
H          8.11132        3.66974       -1.08196
H          8.16487        5.65532       -2.60428
H          8.15698        4.59859       -4.01308
H         10.34435        3.61124       -3.29968
H         10.37284        4.64625       -1.87580
H         10.37262        6.69749       -3.30143
H         10.27695        5.73089       -4.74806
H         12.57398        5.61196       -2.68796
H         12.34431        3.55445       -4.15831
H         13.89558        4.40908       -4.34309
H         11.53158        4.67973       -6.10232
H         12.88968        3.80364       -6.45219
H         12.77676        5.90518       -7.62619
H         11.55594        7.16242       -6.03908
H         12.40182        7.87643       -3.82157
H         13.92766        7.04068       -4.07636
H         16.78894        9.56953       -5.02640
H         15.75665       10.71697       -4.12516
H         18.48029       11.39863       -5.43997
H         18.19154       11.18912       -3.70051
H         17.45742       12.55875       -4.55679
H         14.91741        4.62240       -6.84430
H         15.15464        5.92806       -5.68663
H         15.33914        7.57553       -7.60250
H         14.83327        6.32328       -8.72770
