108

C         -0.02554       12.39992      -14.51910
C          1.47670       12.65432      -14.37129
C          2.16778       11.67684      -13.41391
C          3.67188       11.92427      -13.26262
C          4.36658       10.94864      -12.30680
C          5.87418       11.18909      -12.17966
C          6.58023       10.22068      -11.22495
C          8.09626       10.43101      -11.15999
C          8.82131        9.46703      -10.21471
C         10.34569        9.61028      -10.26322
C         11.09550        8.63611       -9.34796
C         12.61652        8.70970       -9.51811
C         13.38720        7.70152       -8.65894
C         14.87752        7.64763       -9.03121
C         15.61072        6.60632       -8.19241
N         16.95869        6.13031       -8.74416
C         17.54982        5.15751       -7.73474
C         18.77775        4.41772       -8.25374
C         18.50054        3.69405       -9.57693
C         17.94772        4.67053      -10.62377
C         16.72718        5.41626      -10.06853
C         17.57789        3.96267      -11.94484
C         17.22737        4.92776      -13.07058
O         16.53086        5.92204      -12.92909
O         17.77168        4.53977      -14.23410
C         17.48298        5.38511      -15.39990
C         18.44727        6.55985      -15.49051
C         18.12303        7.47675      -16.67705
C         19.02067        8.71822      -16.73115
C         18.65130        9.69266      -17.85448
C         19.51356       10.95922      -17.87265
C         19.12372       11.95467      -18.97143
C         19.97493       13.22704      -18.96602
C         17.92182        7.31364       -8.98999
O         18.43079        7.83882       -7.81432
C         18.02016        9.18428       -7.44746
O         16.86068        9.22805       -6.69225
C         17.03832        8.90558       -5.29630
C         15.69245        8.95469       -4.61245
O         14.90859        7.85082       -5.08173
H         -0.49023       13.11497      -15.21187
H         -0.54309       12.49069      -13.55230
H         -0.22367       11.38844      -14.90433
H          1.64335       13.68618      -14.01787
H          1.96025       12.59410      -15.36128
H          2.00089       10.64347      -13.76686
H          1.68526       11.73653      -12.42212
H          3.83804       12.95816      -12.91147
H          4.15193       11.86400      -14.25554
H          4.19057        9.91385      -12.65038
H          3.89814       11.01802      -11.30924
H          6.05206       12.22612      -11.84434
H          6.33753       11.11380      -13.17943
H          6.37158        9.18243      -11.53849
H          6.14897       10.32213      -10.21348
H          8.31050       11.47094      -10.85664
H          8.51662       10.32283      -12.17578
H          8.54812        8.42893      -10.47496
H          8.46465        9.62289       -9.18158
H         10.62732       10.64614      -10.00492
H         10.68508        9.45773      -11.30308
H         10.75944        7.60610       -9.56190
H         10.82560        8.83051       -8.29545
H         12.96792        9.73116       -9.29213
H         12.86140        8.53413      -10.58064
H         12.94844        6.69758       -8.79595
H         13.27962        7.94563       -7.58954
H         15.32022        8.64204       -8.87338
H         14.94815        7.42214      -10.10640
H         15.01217        5.68778       -8.11050
H         15.79132        6.98134       -7.17822
H         16.73821        4.45275       -7.50546
H         17.76789        5.74098       -6.83378
H         19.07233        3.69983       -7.47504
H         19.62750        5.11022       -8.35875
H         17.77085        2.88223       -9.41211
H         19.41922        3.21905       -9.94854
H         18.73906        5.39876      -10.87121
H         15.90942        4.70487       -9.87719
H         16.37043        6.15022      -10.79729
H         16.70709        3.30146      -11.79336
H         18.40830        3.32046      -12.26467
H         16.44165        5.72662      -15.32720
H         17.58770        4.70040      -16.25050
H         19.47853        6.18061      -15.57139
H         18.38688        7.14312      -14.55816
H         17.06898        7.79703      -16.61001
H         18.21176        6.91392      -17.62175
H         20.07373        8.40696      -16.84341
H         18.96245        9.24539      -15.76226
H         17.58943        9.97781      -17.75154
H         18.73218        9.17894      -18.82821
H         20.57503       10.67954      -17.99347
H         19.44462       11.45929      -16.88987
H         18.05964       12.22222      -18.85644
H         19.20508       11.46063      -19.95412
H         19.88203       13.76574      -18.01111
H         19.67398       13.91679      -19.76616
H         21.04061       12.99569      -19.11138
H         17.36006        8.04336       -9.58990
H         18.74684        6.90275       -9.58165
H         17.83108        9.76320       -8.36396
H         18.89163        9.57973       -6.90212
H         17.72071        9.63946       -4.83380
H         17.47548        7.89826       -5.18965
H         15.20199        9.91785       -4.83635
H         15.85876        8.89266       -3.52259
H         14.05455        7.86358       -4.62377
