84

C         10.18838        8.41820       -4.93790
C         10.34259        6.94545       -4.55045
C         10.72867        6.04279       -5.72762
C         10.90508        4.57182       -5.33896
C         11.27840        3.65928       -6.51230
C         11.48714        2.19868       -6.09954
C         11.83854        1.26538       -7.26312
C         12.08442       -0.18033       -6.81757
C         12.41186       -1.13374       -7.97553
C         12.55444       -2.61051       -7.56430
C         13.76592       -2.86195       -6.67360
O         13.85596       -4.24599       -6.23048
C         14.41050       -5.13544       -7.16257
P         16.22545       -5.31002       -6.76962
C         16.43710       -5.60237       -4.97701
C         15.57395       -6.78900       -4.51917
O         15.67322       -7.70824       -5.61881
C         14.69878       -8.77508       -5.68107
C         14.61482       -9.19279       -7.12518
C         15.65345       -9.93467       -7.70836
C         15.62402      -10.24558       -9.06930
C         14.54915       -9.82625       -9.86074
C         13.50225       -9.10138       -9.28547
C         13.53785       -8.78544       -7.92448
C         16.03673       -7.37311       -3.18956
C         17.25173       -6.40003       -7.82480
C         16.69291       -6.45060       -9.24878
O         16.38501       -5.12110       -9.64537
Si        15.60741       -4.72313      -11.10532
C         14.05666       -5.77595      -11.27032
C         15.19357       -2.90949      -10.89506
C         16.77487       -5.02584      -12.53706
H          9.91510        9.03610       -4.07161
H          9.40621        8.55160       -5.70017
H         11.12391        8.82300       -5.35226
H          9.40002        6.57999       -4.10791
H         11.10381        6.85131       -3.75712
H         11.66477        6.41597       -6.18007
H          9.96036        6.12478       -6.51697
H          9.97365        4.20278       -4.87424
H         11.68147        4.49439       -4.55708
H         12.19728        4.03805       -6.99341
H         10.49000        3.71373       -7.28332
H         10.57449        1.82758       -5.60060
H         12.28653        2.14869       -5.33874
H         12.73528        1.64661       -7.78274
H         11.02511        1.28500       -8.00910
H         11.19157       -0.55445       -6.28644
H         12.90058       -0.18302       -6.07471
H         13.33295       -0.79904       -8.48478
H         11.61342       -1.06635       -8.73111
H         12.62769       -3.23387       -8.47154
H         11.65121       -2.94129       -7.02738
H         13.70306       -2.28867       -5.74009
H         14.69952       -2.56852       -7.18793
H         14.33798       -4.80358       -8.20768
H         13.94257       -6.12346       -7.06895
H         16.72742       -4.00459       -6.96992
H         16.17126       -4.67678       -4.44931
H         17.50890       -5.79458       -4.81057
H         14.52305       -6.45211       -4.43170
H         13.72257       -8.40660       -5.32031
H         15.01840       -9.60766       -5.03221
H         16.48692      -10.27484       -7.09018
H         16.43120      -10.83104       -9.51071
H         14.51773      -10.08020      -10.92080
H         12.65222       -8.79052       -9.89373
H         12.70654       -8.23720       -7.47396
H         17.06169       -7.76130       -3.27194
H         15.37786       -8.18953       -2.86680
H         16.01547       -6.60455       -2.40418
H         17.27489       -7.39146       -7.35938
H         18.26093       -5.96105       -7.80903
H         15.79964       -7.09821       -9.27213
H         17.44931       -6.90774       -9.91049
H         13.37574       -5.65069      -10.41621
H         14.29262       -6.84541      -11.36056
H         13.50437       -5.48627      -12.17587
H         14.49451       -2.74153      -10.06385
H         14.71992       -2.51928      -11.80687
H         16.09831       -2.31476      -10.70893
H         17.06904       -6.08242      -12.61012
H         17.68697       -4.42149      -12.44063
H         16.29235       -4.75568      -13.48761
