75

F          0.74121       -0.15693        0.77763
C          2.07951        0.03959        1.09012
C          2.66478        1.08934        0.14517
C          4.17224        1.28301        0.29297
C          4.72213        2.54493       -0.39372
N          6.16628        2.65041       -0.38574
C          6.87363        1.48754       -0.90245
C          6.44285        0.15988       -0.21634
N          4.91100        0.09484       -0.32545
C          6.84914       -0.05331        1.24778
C          8.08461       -0.95496        1.41851
N          8.30271       -1.19738        2.84194
C          8.39089        1.69013       -0.84783
C          8.90356        2.84454       -1.71618
C         10.41933        3.02417       -1.58881
C         10.98418        4.16210       -2.44409
C         12.50138        4.31538       -2.29907
C         13.10335        5.42762       -3.16266
C         14.62198        5.55067       -3.00508
C         15.25640        6.62357       -3.89466
C         16.77079        6.74927       -3.70160
C         17.43321        7.75948       -4.64384
C         18.93612        7.91555       -4.39625
C         19.60520        8.87630       -5.38861
N         21.02510        9.06819       -5.13179
C         21.56673       10.06661       -4.35081
C         22.92796        9.84330       -4.24403
C         23.22015        8.66124       -4.98038
C         22.02807        8.20286       -5.51225
H          2.57951       -0.94414        1.00203
H          2.14423        0.36475        2.14102
H          2.17740        2.05537        0.34469
H          2.40645        0.82885       -0.89565
H          4.46530        1.28102        1.35398
H          4.28514        3.42569        0.09529
H          4.36759        2.56179       -1.44233
H          6.53862        2.97382        0.50703
H          6.58347        1.39348       -1.96970
H          6.78972       -0.68978       -0.82728
H          4.58372       -0.77925        0.10702
H          4.64962        0.04766       -1.32243
H          6.03656       -0.53631        1.81682
H          7.02095        0.91522        1.74449
H          8.95008       -0.51650        0.88709
H          7.88089       -1.92544        0.93851
H          8.74442       -0.39556        3.29355
H          8.92563       -1.99144        2.98602
H          8.88323        0.75394       -1.15824
H          8.69441        1.85962        0.20088
H          8.38991        3.77720       -1.43686
H          8.63872        2.65224       -2.77003
H         10.92439        2.08060       -1.86178
H         10.67485        3.20622       -0.52967
H         10.48866        5.10977       -2.16998
H         10.73257        3.98358       -3.50401
H         12.98758        3.35714       -2.55408
H         12.74776        4.50389       -1.23904
H         12.62724        6.39091       -2.90848
H         12.85850        5.23999       -4.22302
H         15.08923        4.57485       -3.22734
H         14.86151        5.76352       -1.94806
H         14.77919        7.59888       -3.69342
H         15.03906        6.39411       -4.95287
H         17.23980        5.76002       -3.84571
H         16.98222        7.03167       -2.65536
H         16.93847        8.74090       -4.53550
H         17.25987        7.44768       -5.68904
H         19.43273        6.93373       -4.46187
H         19.11447        8.28378       -3.37295
H         19.12125        9.86390       -5.35047
H         19.48719        8.50387       -6.41843
H         20.93937       10.85543       -3.94805
H         23.63416       10.47035       -3.70941
H         24.19429        8.20336       -5.12006
H         21.80998        7.33971       -6.13356
