82

C          6.15480       14.55679        2.39559
C          7.35130       13.63846        2.65218
C          6.95437       12.17781        2.89077
C          8.14835       11.25684        3.15767
C          7.75962        9.79886        3.42293
C          8.96350        8.89299        3.69880
C          8.59247        7.43768        4.00086
C          9.81192        6.55319        4.28227
C          9.45126        5.10694        4.64047
C         10.65610        4.17731        4.85426
C         11.55273        4.58794        6.02974
C         12.69737        3.59935        6.26279
N         13.53518        4.01530        7.40333
C         14.82676        4.40991        7.32894
N         15.22820        5.43727        8.10184
C         16.63640        5.88628        8.27534
O         17.47287        4.97324        7.59930
C         16.92452        4.64858        6.33312
N         15.71950        3.81130        6.50519
Si        15.87682        1.99573        6.17413
C         15.42361        1.69403        4.38270
C         17.68078        1.57709        6.47672
C         14.81508        1.05000        7.39302
C         17.03224        6.07326        9.76868
C         16.93580        4.74939       10.60732
C         18.06803        3.73580       10.35562
C         16.84101        5.00177       12.12335
C         18.46964        6.63592        9.78684
O         18.48006        7.88382        9.08582
C         16.06820        7.14899       10.32108
H          6.47147       15.59601        2.23231
H          5.45852       14.55057        3.24741
H          5.59108       14.23709        1.50659
H          7.91765       14.00543        3.52499
H          8.04650       13.68963        1.79712
H          6.39210       11.80523        2.01656
H          6.25521       12.12642        3.74412
H          8.71745       11.64279        4.02211
H          8.83986       11.29881        2.29768
H          7.19576        9.40597        2.55921
H          7.06702        9.75691        4.28177
H          9.53653        9.30368        4.54944
H          9.64685        8.92245        2.83180
H          8.02272        7.01746        3.15444
H          7.91205        7.40742        4.86976
H         10.39354        7.01310        5.10009
H         10.47418        6.55500        3.39798
H          8.82746        4.68271        3.83772
H          8.82175        5.09927        5.54725
H         11.26110        4.14706        3.93153
H         10.29270        3.14980        5.02080
H         10.94050        4.65488        6.94710
H         11.97596        5.58925        5.85514
H         13.34528        3.54134        5.37861
H         12.29862        2.59079        6.45070
H         13.01673        4.37493        8.20149
H         14.51657        6.05137        8.48622
H         16.71030        6.87908        7.79336
H         17.68581        4.09203        5.78071
H         16.65679        5.56459        5.77746
H         16.00028        2.34376        3.70922
H         14.35702        1.84564        4.17241
H         15.66572        0.65394        4.11792
H         18.36669        1.97735        5.71844
H         17.77538        0.48101        6.44128
H         18.02513        1.90409        7.46716
H         13.73674        1.13680        7.22093
H         15.02896        1.34147        8.43034
H         15.07451       -0.01507        7.29446
H         15.98580        4.27273       10.30312
H         19.02154        4.09010       10.77353
H         18.22346        3.52380        9.29291
H         17.83169        2.79189       10.86603
H         17.72702        5.53107       12.50358
H         16.79276        4.03934       12.65018
H         15.95311        5.57699       12.41167
H         19.16266        5.92140        9.31620
H         18.77435        6.77357       10.83929
H         19.38655        8.22561        9.08002
H         15.06137        6.74300       10.50495
H         15.99405        8.00798        9.64108
H         16.43144        7.53629       11.27979
