67

C          0.71162        0.33505       -0.28282
C          2.23899        0.32063       -0.18148
C          2.76277       -0.49459        1.00647
C          4.29001       -0.49527        1.12603
C          4.81835       -1.34482        2.28681
C          6.34449       -1.31648        2.41899
C          6.88275       -2.18789        3.55880
C          8.40707       -2.12580        3.70231
C          8.95627       -2.99959        4.83504
C         10.47704       -2.89067        4.99441
C         11.03267       -3.74396        6.14401
C         12.52885       -3.52669        6.32550
O         13.06973       -4.22497        7.48656
C         13.45050       -5.56529        7.23328
N         13.74481       -6.22758        8.50032
C         14.76727       -5.77615        9.28332
N         15.20214       -6.48401       10.32336
C         16.21004       -6.05251       11.29379
C         16.10621       -6.95912       12.51832
O         16.07651       -8.28481       12.02349
C         16.13363       -9.29249       13.04384
C         16.16775      -10.65531       12.38877
O         17.40708      -10.81905       11.72816
C         17.53884      -12.09657       11.11644
N         15.32235       -4.59803        8.95850
I         12.34830       -7.54410        9.26412
H          0.37053        0.91583       -1.15088
H          0.25544        0.77976        0.61421
H          0.30858       -0.68360       -0.38660
H          2.61355        1.35559       -0.10507
H          2.66661       -0.08554       -1.11403
H          2.40155       -1.53486        0.92037
H          2.32369       -0.10071        1.94036
H          4.64674        0.54346        1.24183
H          4.72946       -0.85990        0.18064
H          4.48111       -2.38840        2.15756
H          4.36428       -0.99651        3.23134
H          6.67687       -0.27419        2.56942
H          6.79918       -1.64228        1.46679
H          6.57139       -3.23490        3.39710
H          6.41446       -1.87706        4.50937
H          8.71251       -1.07829        3.87180
H          8.87672       -2.42595        2.74918
H          8.67898       -4.05294        4.65513
H          8.47098       -2.71545        5.78498
H         10.74572       -1.83371        5.16572
H         10.96702       -3.17873        4.04833
H         10.81630       -4.80828        5.94979
H         10.52559       -3.48310        7.08646
H         12.74287       -2.46722        6.52326
H         13.09856       -3.81843        5.42529
H         14.36694       -5.60138        6.61173
H         12.65728       -6.13605        6.73002
H         14.95395       -7.47400       10.39456
H         16.02795       -5.00699       11.58299
H         17.21892       -6.13971       10.85718
H         15.19062       -6.73025       13.09851
H         16.98019       -6.78451       13.17123
H         15.24885       -9.21745       13.70286
H         17.04282       -9.14715       13.65373
H         15.32170      -10.75491       11.67708
H         16.02896      -11.42385       13.17592
H         18.52593      -12.12150       10.64111
H         16.76218      -12.25910       10.34637
H         17.47465      -12.91114       11.86024
H         14.76645       -3.95248        8.39034
H         16.22149       -4.32107        9.33116
