54

C          7.11540       -7.08916        9.93873
O          6.70052       -6.10977        8.99342
C          6.48422       -6.66326        7.70180
C          5.79747       -5.65692        6.80563
O          6.60912       -4.49170        6.62624
C          6.14190       -3.68962        5.54483
C          6.71622       -2.29396        5.64517
O          8.15046       -2.37057        5.60641
C          8.78849       -1.10742        5.40332
C         10.28889       -1.29471        5.58482
N         10.74805       -1.27559        6.97723
N         11.82182       -0.47151        7.31726
C         12.10067       -0.75981        8.55907
N         11.23269       -1.73767        9.02703
C         10.36470       -2.04662        8.02216
N          9.33884       -2.89242        8.07528
C          9.16649       -3.90947        9.11739
C         10.20568       -5.04334        9.07352
C         10.36574       -5.69676        7.70892
F         11.12928       -4.86220        6.85977
C         13.22580       -0.16959        9.35006
C         12.77375        0.21114       10.77674
O         11.54590        0.92862       10.81025
C         14.44479       -1.11291        9.38923
H          7.28325       -6.56879       10.88936
H          8.05001       -7.59089        9.62529
H          6.33934       -7.86065       10.08575
H          5.83307       -7.55647        7.76616
H          7.44482       -6.98775        7.25336
H          4.82207       -5.36636        7.23733
H          5.61039       -6.14860        5.83240
H          5.03957       -3.59792        5.56879
H          6.42434       -4.15124        4.57979
H          6.39520       -1.80414        6.58278
H          6.34668       -1.69626        4.79347
H          8.40006       -0.34604        6.10457
H          8.59687       -0.75466        4.37478
H         10.83324       -0.47307        5.10621
H         10.60199       -2.24073        5.11602
H         11.15233       -2.06207        9.98471
H          8.79516       -2.98228        7.20042
H          8.16148       -4.32599        8.96757
H          9.16196       -3.42500       10.10781
H          9.88676       -5.81139        9.79459
H         11.19995       -4.70512        9.40717
H          9.39785       -5.85858        7.21001
H         10.90410       -6.65227        7.78324
H         13.50307        0.74843        8.80863
H         13.59027        0.76237       11.27131
H         12.60880       -0.69932       11.37865
H         11.71376        1.85901       10.59402
H         14.20414       -2.06287        9.88833
H         15.26811       -0.64241        9.94301
H         14.80032       -1.33720        8.37667
