55

C          0.60079       -0.03255        0.03212
C          2.12271       -0.18845       -0.00657
C          2.82803        0.44076        1.19962
C          4.35033        0.26838        1.17176
C          5.04809        0.86244        2.40057
C          6.55371        0.67034        2.36070
O          7.12080        1.20852        3.56538
C          8.52514        1.13031        3.59044
C          9.01229        1.73630        4.91992
N         10.33177        1.16474        5.25169
C         11.45501        1.74843        4.81880
N         12.64777        1.17448        5.08140
N         11.39478        2.89185        4.12776
C         10.19165        3.74003        4.03990
C          9.11494        3.28634        5.04213
C          7.75339        3.99932        4.76248
C          7.39651        4.36872        3.31784
C          9.59773        3.67634        6.47785
C          8.85190        3.08604        7.68146
O          9.32122        1.71975        7.84987
C          9.10510        3.89513        8.94957
H          0.12774       -0.49711       -0.84330
H          0.30710        1.02758        0.04402
H          0.17319       -0.50362        0.92956
H          2.51734        0.26161       -0.93326
H          2.38231       -1.25943       -0.05750
H          2.42837       -0.00340        2.12817
H          2.58148        1.51596        1.24918
H          4.75324        0.73345        0.25516
H          4.59126       -0.80635        1.09781
H          4.65731        0.39390        3.31815
H          4.82833        1.93987        2.47810
H          6.99475        1.18519        1.48360
H          6.81592       -0.40252        2.28007
H          8.97072        1.64113        2.71064
H          8.86628        0.07669        3.55272
H          8.33088        1.36542        5.69477
H         10.37717        0.68101        6.14786
H         12.69421        0.21113        5.38772
H         13.51577        1.68356        4.97917
H         12.21971        3.18100        3.61235
H          9.81526        3.69670        3.00860
H         10.49625        4.77785        4.24031
H          7.74350        4.92504        5.35768
H          6.95422        3.36589        5.17244
H          8.07082        5.12903        2.89913
H          6.38734        4.80016        3.29965
H          7.38162        3.50258        2.64637
H          9.52913        4.77184        6.54223
H         10.66379        3.43669        6.62314
H          7.76534        3.06332        7.47769
H          8.92478        1.36732        8.66231
H         10.18132        3.96565        9.16205
H          8.61406        3.42921        9.81613
H          8.69970        4.91174        8.85211
