66

C         11.06187       -2.73034       -3.84682
C         10.11240       -2.83096       -2.65041
C         10.69345       -2.24647       -1.35739
C          9.72437       -2.31741       -0.17305
C         10.31200       -1.80344        1.14520
C          9.30818       -1.83475        2.30298
C          9.92420       -1.43534        3.64926
C          8.89982       -1.47864        4.77230
O          9.55823       -1.26565        6.06872
C          9.56538       -0.01627        6.55542
O          9.04282        0.96583        6.08170
C         10.37583        0.02194        7.85386
S         12.13536       -0.29553        7.46105
C         12.52678        0.97558        6.28452
C         12.29573        2.33323        6.54460
C         12.58809        3.28268        5.57302
C         13.10511        2.86548        4.34090
C         13.33383        1.51835        4.06817
C         13.04909        0.54314        5.03853
O         13.23620       -0.78386        4.87828
C         13.71550       -1.26808        3.60928
C         12.97951        0.20371        9.01335
C         12.60663       -0.71572       10.17684
C         13.45499       -0.41012       11.42327
C         13.04981       -1.26999       12.62665
C         13.90493       -1.01204       13.87323
C         13.48576       -1.86686       15.07218
H         10.61732       -3.17158       -4.74908
H         12.00950       -3.25524       -3.65318
H         11.30574       -1.68228       -4.07708
H          9.84475       -3.88717       -2.47894
H          9.16581       -2.31595       -2.88645
H         10.98471       -1.19493       -1.53033
H         11.62641       -2.78152       -1.10377
H          9.39419       -3.36177       -0.03442
H          8.81292       -1.74309       -0.41383
H         10.68230       -0.77135        1.00859
H         11.19361       -2.41554        1.40912
H          8.88344       -2.84971        2.38582
H          8.46114       -1.16816        2.06942
H         10.34952       -0.41988        3.58583
H         10.74888       -2.12109        3.90123
H          8.44350       -2.47205        4.86845
H          8.11532       -0.72053        4.65266
H         10.07802       -0.78864        8.53202
H         10.26788        1.00030        8.33412
H         11.87627        2.65179        7.49934
H         12.40825        4.33809        5.77065
H         13.33444        3.60576        3.57374
H         13.73773        1.22306        3.10167
H         14.72546       -0.88751        3.39868
H         13.02499       -0.99571        2.79790
H         13.74801       -2.35665        3.71401
H         12.74728        1.25933        9.21099
H         14.04454        0.12336        8.74722
H         12.74639       -1.76902        9.88452
H         11.54219       -0.59092       10.43118
H         13.35649        0.65743       11.68365
H         14.52001       -0.57481       11.18924
H         13.11644       -2.33734       12.35322
H         11.98855       -1.08342       12.86735
H         13.84457        0.05622       14.14115
H         14.96351       -1.20600       13.63248
H         12.44549       -1.66354       15.36589
H         14.12114       -1.66597       15.94469
H         13.56358       -2.94054       14.84587
