52

C          2.57787       -0.81361       -1.83873
C          3.33606       -0.83913       -0.50964
C          3.32225        0.51399        0.21228
C          4.09570        0.47381        1.53615
N          4.20854        1.78613        2.19572
C          3.32984        2.28309        3.08421
O          3.48965        3.42445        3.59531
C          2.09261        1.45907        3.46611
C          1.49650        1.89153        4.80950
C          0.19182        1.19226        5.21923
N         -0.34079        1.69785        6.47056
C          0.13690        1.04502        7.69942
C         -0.46725       -0.34424        7.89246
C         -0.51897        3.13981        6.47295
C          0.72285        3.96920        6.06402
N          1.23149        3.38205        4.76634
C          1.87772        4.06645        7.08533
C          1.59504        5.08897        8.15220
C          1.82578        6.40413        8.07628
Br         2.56974        7.21751        6.53575
Br         0.83058        4.44324        9.78106
C          5.35333        2.61314        1.79491
H          2.60923       -1.79412       -2.33087
H          3.01365       -0.08067       -2.53273
H          1.52039       -0.54779       -1.69461
H          4.38101       -1.14322       -0.68654
H          2.90368       -1.61111        0.14915
H          2.28100        0.82481        0.40245
H          3.75823        1.28720       -0.44136
H          5.12343        0.12211        1.36343
H          3.64218       -0.24999        2.22677
H          2.32939        0.38889        3.53165
H          1.34211        1.55061        2.66075
H          2.25451        1.75594        5.59529
H          0.36195        0.11017        5.29826
H         -0.55619        1.33436        4.41383
H         -0.15604        1.69212        8.53684
H          1.24493        0.97616        7.74289
H         -1.56302       -0.28889        7.91692
H         -0.11652       -0.77783        8.83836
H         -0.17940       -1.04235        7.09328
H         -0.86053        3.46393        7.46391
H         -1.32959        3.39183        5.76199
H          0.40712        4.99174        5.80744
H          2.18034        3.75623        4.39670
H          0.52825        3.56436        4.03551
H          2.79182        4.38410        6.55776
H          2.08537        3.09626        7.55259
H          1.61400        7.11107        8.87423
H          5.51588        2.50598        0.71550
H          6.26111        2.29094        2.32608
H          5.15146        3.65996        2.03663
