96

C         -0.82877       -4.58020        0.01616
C          0.48028       -3.78737        0.04645
C          1.50765       -4.36219        1.02686
C          2.83590       -3.59775        1.04293
C          3.88485       -4.26510        1.94048
C          5.23781       -3.57489        1.88638
O          6.21880       -4.47073        2.45376
C          7.55966       -4.07909        2.24301
C          8.39519       -5.35150        2.15381
N          7.93160       -6.32173        1.32377
C          6.92061       -6.00203        0.27186
C          6.98623       -6.84646       -0.99966
C          6.00367       -6.20468       -2.00538
S          5.15448       -7.36151       -3.10740
C          3.80967       -7.93423       -2.05973
S          3.70390       -7.54812       -0.43015
N          2.91222       -8.70386       -2.70904
C          2.97222       -8.98809       -4.15355
C          3.68946      -10.29813       -4.48813
C          1.76944       -9.29589       -1.98783
C          0.54363       -8.38138       -1.97397
C          8.32277       -7.63237        1.45714
C          9.16639       -8.01147        2.45860
C          9.77251       -7.03704        3.28805
C          9.47711       -5.64607        3.04087
C         10.26007       -4.65158        3.72552
C         11.08524       -5.07350        4.75885
C         11.25131       -6.43217        5.09743
C         10.64930       -7.40808        4.33309
C         10.40479       -3.21646        3.26092
C         11.73731       -3.05504        2.49429
C         12.00339       -1.65315        1.92899
C         11.65208       -1.39047        0.41186
C         10.17197       -1.52067       -0.12431
C          8.98944       -0.61075        0.40151
C          9.02827        0.96827        0.30571
C          9.17230        1.71819       -1.07995
C          8.10158        1.53909       -2.23205
C          6.59387        1.88132       -1.93456
F          6.47602        3.07747       -1.33889
F          5.92818        1.90470       -3.10107
F          6.03421        0.94086       -1.14694
F          8.50829        2.36785       -3.22497
F          8.15396        0.25958       -2.68848
F          9.21207        3.03595       -0.76322
F         10.36829        1.37089       -1.62091
F          7.86972        1.38776        0.88222
F         10.06011        1.39249        1.07465
F          7.87859       -1.05235       -0.24978
F          8.81483       -0.88509        1.72762
F         10.22809       -1.38616       -1.46696
F          9.76510       -2.81247        0.14169
F         12.10590       -0.16146        0.07599
F         12.35250       -2.31868       -0.30930
F         11.40324       -0.68172        2.68534
F         13.35486       -1.42192        1.98487
H         -1.54773       -4.14166       -0.68943
H         -1.30732       -4.60168        1.00632
H         -0.65792       -5.62377       -0.28936
H          0.26994       -2.73655        0.30827
H          0.92087       -3.76414       -0.96501
H          1.70713       -5.41573        0.76446
H          1.07822       -4.37610        2.04368
H          2.66548       -2.55553        1.36324
H          3.22941       -3.54174        0.01214
H          4.01923       -5.30790        1.61107
H          3.53215       -4.30874        2.98254
H          5.23944       -2.61866        2.43973
H          5.51804       -3.35182        0.83748
H          7.90878       -3.47509        3.09038
H          7.66507       -3.46495        1.32980
H          7.06169       -4.94587        0.01661
H          5.92116       -6.12281        0.71060
H          6.65103       -7.87198       -0.79886
H          8.00080       -6.88417       -1.42286
H          6.52102       -5.51121       -2.68340
H          5.21089       -5.65520       -1.47643
H          3.45091       -8.13621       -4.65690
H          1.93357       -9.01573       -4.51362
H          4.73872      -10.27118       -4.16759
H          3.66690      -10.46645       -5.57330
H          3.20323      -11.15684       -4.00552
H          2.09996       -9.51227       -0.96452
H          1.54082      -10.25028       -2.48347
H          0.75840       -7.45388       -1.42833
H         -0.29029       -8.89027       -1.47222
H          0.21620       -8.12372       -2.99071
H          7.88129       -8.33290        0.75586
H          9.38932       -9.06851        2.59917
H         11.66639       -4.32521        5.30168
H         11.90387       -6.70423        5.92720
H         10.83738       -8.46606        4.51778
H         10.40060       -2.54097        4.12697
H          9.58771       -2.90364        2.61416
H         11.80916       -3.78435        1.67586
H         12.58161       -3.25802        3.16735
