73

C          9.13391        7.27867        6.53487
C          8.99302        6.19319        5.46553
C          9.56682        6.60923        4.10781
C          9.42487        5.53658        3.02411
C          9.99515        5.96314        1.66857
C          9.84201        4.90310        0.57394
C         10.39292        5.35429       -0.78145
C         10.22114        4.31892       -1.89653
C         10.75396        4.80704       -3.24754
C         10.56887        3.79526       -4.38342
C         11.00632        4.31264       -5.76052
C         12.53936        4.50208       -5.87146
C         12.96283        5.11360       -7.17839
C         13.17962        4.25406       -8.26075
N         13.55538        4.75743       -9.43854
N         13.83926        6.02342       -9.68511
C         13.67920        6.88812       -8.68028
C         13.14870        6.49506       -7.40784
C         12.82688        7.49149       -6.32613
C         12.03755        8.77300       -6.75026
O         11.20424        8.61483       -7.88128
C          9.92860        8.01291       -7.63809
C          9.07053        8.25806       -8.87396
O          7.91490        7.45397       -8.75182
C          6.98658        7.67648       -9.81009
C         14.10395        8.30526       -8.99033
C         15.12161        8.46969      -10.12619
C         16.54368        8.12335       -9.71804
F         16.98406        8.92732       -8.71157
F         16.65223        6.83728       -9.25916
F         17.39678        8.25460      -10.75469
H          8.71556        6.95434        7.49747
H          8.61056        8.19988        6.23763
H         10.19012        7.53826        6.70133
H          7.92872        5.93006        5.34340
H          9.49599        5.27169        5.80445
H         10.63376        6.86840        4.22817
H          9.06729        7.53514        3.77121
H          8.35811        5.27772        2.90481
H          9.92615        4.61084        3.35700
H         11.06394        6.21534        1.78543
H          9.49834        6.89431        1.34305
H          8.77489        4.64248        0.46466
H         10.35111        3.97494        0.88680
H         11.46414        5.60182       -0.67507
H          9.89269        6.29273       -1.07984
H          9.15282        4.06246       -1.99919
H         10.73448        3.38331       -1.61574
H         11.82192        5.06257       -3.12888
H         10.23909        5.74716       -3.51675
H          9.50406        3.52117       -4.44952
H         11.10881        2.86212       -4.14861
H         10.49971        5.26927       -5.96949
H         10.67975        3.61463       -6.54828
H         13.02395        3.51771       -5.77412
H         12.90906        5.11089       -5.03707
H         13.05165        3.17265       -8.20843
H         13.68849        4.14299      -10.24530
H         13.77351        7.82986       -5.86583
H         12.27810        6.97500       -5.53130
H         12.73484        9.58053       -7.00465
H         11.45575        9.10755       -5.87369
H          9.45937        8.45677       -6.74254
H         10.02215        6.92259       -7.47426
H          9.64934        7.99308       -9.78274
H          8.80922        9.33114       -8.94812
H          6.13091        7.01620       -9.62907
H          7.43231        7.43494      -10.79194
H          6.64027        8.72491       -9.82545
H         14.49966        8.76486       -8.07370
H         13.19014        8.86693       -9.24207
H         15.13728        9.51998      -10.44511
H         14.86048        7.86095      -11.00005
