50

C          0.92858       -0.19030        0.06314
C          2.45293       -0.19515       -0.07581
C          3.00965        1.09276       -0.69342
C          4.53485        1.09771       -0.84179
C          5.08555        2.39721       -1.43931
C          6.60953        2.40226       -1.60424
C          7.15045        3.70634       -2.20125
C          8.67103        3.70530       -2.39979
C          9.18755        5.00563       -3.02867
C         10.72054        5.10778       -3.16688
P         11.49273        3.79911       -4.16581
C         10.66690        3.60157       -5.77267
C         11.23236        2.48819       -6.67885
C         11.16703        1.07856       -6.08458
C         13.28310        4.05349       -4.34550
C         14.03940        4.06069       -3.00875
H          0.56300       -1.12243        0.51496
H          0.43757       -0.08167       -0.91549
H          0.58701        0.64143        0.69723
H          2.76444       -1.05711       -0.69021
H          2.91289       -0.34974        0.91501
H          2.70041        1.95423       -0.07545
H          2.54592        1.25154       -1.68317
H          4.84276        0.24522       -1.47288
H          4.99826        0.92494        0.14547
H          4.78565        3.24692       -0.80167
H          4.61316        2.57604       -2.42119
H          6.90869        1.55410       -2.24577
H          7.08514        2.22313       -0.62424
H          6.87212        4.55273       -1.55052
H          6.65848        3.89623       -3.17120
H          8.93824        2.83693       -3.03098
H          9.17196        3.53880       -1.43031
H          8.87368        5.86064       -2.41029
H          8.71547        5.16553       -4.01121
H         11.21174        5.06224       -2.18162
H         11.01873        6.06140       -3.63172
H         11.34594        2.58839       -3.45294
H         10.72204        4.58631       -6.26444
H          9.60472        3.41927       -5.54281
H         12.26342        2.73442       -6.97449
H         10.64485        2.52243       -7.60770
H         11.84186        0.94570       -5.22555
H         11.46488        0.33603       -6.83497
H         10.14937        0.82421       -5.75539
H         13.41775        4.99591       -4.89954
H         13.64104        3.24372       -4.99990
H         13.74698        4.90423       -2.37101
H         15.11506        4.15245       -3.20216
H         13.88303        3.12979       -2.44703
