52

C          3.88783       -0.62548       -1.61889
C          3.77928        0.08661       -0.64654
C          3.68474        0.97009        0.50924
C          4.61202        2.20243        0.39086
C          6.07334        1.77548        0.26715
N          6.98584        2.90167       -0.14338
C          7.27536        3.86555        0.98439
C          7.61678        5.26653        0.45631
C          6.55607        5.79684       -0.51370
O          5.97119        5.01144       -1.29204
N          6.33863        7.12866       -0.48675
C          5.49154        7.93669       -1.29808
C          4.55438        7.41258       -2.20093
C          3.76548        8.29590       -2.94035
C          3.89582        9.67822       -2.79327
C          4.83089       10.19124       -1.88991
C          5.62530        9.32537       -1.14294
C          8.24130        2.40117       -0.82138
C          8.00050        2.02231       -2.28725
C          9.29832        1.57118       -2.92377
C          9.68143        0.22327       -2.88134
C         10.89777       -0.18611       -3.43230
C         11.74520        0.74925       -4.03190
C         11.37102        2.09463       -4.08079
C         10.15456        2.50233       -3.52866
H          3.95094       -1.27698       -2.46586
H          3.91848        0.40414        1.42660
H          2.64714        1.31928        0.62293
H          4.45026        2.84798        1.26639
H          4.32261        2.77959       -0.50027
H          6.15601        1.00500       -0.51034
H          6.46664        1.35306        1.20439
H          6.46737        3.54065       -0.83276
H          8.09145        3.45473        1.59339
H          6.37254        3.91069        1.60580
H          8.58362        5.26261       -0.07282
H          7.74279        5.93150        1.32185
H          6.89259        7.65468        0.18471
H          4.44701        6.33946       -2.32362
H          3.03542        7.89018       -3.64115
H          3.27224       10.35328       -3.37900
H          4.94393       11.26780       -1.76365
H          6.35990        9.72875       -0.44134
H          8.61997        1.55135       -0.23605
H          8.98938        3.20261       -0.76822
H          7.59745        2.89647       -2.82194
H          7.24982        1.22139       -2.36184
H          9.01810       -0.51571       -2.42514
H         11.18046       -1.23871       -3.40105
H         12.69243        0.42866       -4.46629
H         12.02276        2.82687       -4.55844
H          9.86078        3.55346       -3.58422
