57

C          2.26570        0.26415        1.09281
C          3.45470        0.65645        0.21251
C          4.05727        2.01649        0.58341
C          5.24269        2.41553       -0.30250
C          5.85077        3.76846        0.04523
O          6.38877        3.81368        1.39737
C          7.70021        3.26173        1.56346
C          8.78629        4.34681        1.64750
N          9.03588        4.94541        2.97926
C          8.07647        5.63011        3.66731
N          8.39632        6.18080        4.84946
C          7.46821        6.96335        5.67275
C          8.19695        7.59119        6.86050
C          7.26201        8.44319        7.72734
C          7.98044        9.13277        8.89280
C          7.05241       10.01031        9.74139
C          7.77834       10.72955       10.88084
N          6.84963        5.78689        3.15396
C         10.41806        5.08446        3.41759
O         10.57297        4.44185        4.67456
C         11.92813        4.49904        5.14971
H          1.85940       -0.71366        0.80232
H          1.44990        0.99781        1.01451
H          2.55434        0.20124        2.15260
H          3.14126        0.67415       -0.84474
H          4.23726       -0.11802        0.28177
H          4.37618        1.99975        1.63896
H          3.27575        2.79380        0.51392
H          4.92476        2.47008       -1.35771
H          6.02080        1.63313       -0.27063
H          5.08239        4.55508        0.03067
H          6.64103        4.05414       -0.67030
H          7.94065        2.60198        0.71629
H          7.69824        2.64728        2.47653
H          8.56627        5.13963        0.91135
H          9.73953        3.89238        1.35331
H          9.22765        5.79066        5.29943
H          6.64437        6.32074        6.03534
H          7.02921        7.75839        5.04853
H          9.02523        8.21338        6.48360
H          8.64885        6.79345        7.47485
H          6.44612        7.81236        8.12013
H          6.77954        9.20963        7.09626
H          8.80452        9.75188        8.49713
H          8.45445        8.37117        9.53623
H          6.24055        9.38803       10.15386
H          6.56276       10.75344        9.08965
H          8.24510       10.01459       11.57432
H          7.08705       11.35237       11.46386
H          8.57307       11.38647       10.49747
H          6.54104        5.18772        2.35907
H          6.12202        6.12557        3.77276
H         10.68732        6.15684        3.50427
H         11.06423        4.62010        2.65582
H         11.93550        3.99133        6.11923
H         12.26695        5.54108        5.27544
H         12.60799        3.97589        4.45785
