63

N          2.40485       -0.08554        2.48084
C          2.33723       -1.41890        1.86469
C          2.92878       -1.43212        0.43280
C          4.43690       -1.38562        0.39298
C          5.15079       -2.57748        0.35678
C          6.55846       -2.63232        0.34279
C          7.33698       -1.48810        0.35578
C          6.63964       -0.23687        0.38564
C          5.19187       -0.17587        0.41178
C          4.58013        1.10591        0.45392
C          5.31913        2.26486        0.45079
N          6.69049        2.14807        0.42037
C          7.33596        0.98105        0.39875
C          4.75090        3.65960        0.47212
C          5.52085        4.65196        1.37032
O          6.89890        4.77036        0.91308
C          4.85149        6.01407        1.44931
C          8.84022       -1.58347        0.39253
C          9.41410       -1.51622        1.82610
C         10.94008       -1.64177        1.85949
C         11.52030       -1.65166        3.27809
C         13.04799       -1.77363        3.30622
C         13.63327       -1.85647        4.72002
C         15.16143       -1.96615        4.74247
C         15.75277       -2.07965        6.15211
C         17.28004       -2.18497        6.16019
H          2.52317       -0.15598        3.49012
H          1.53353        0.42316        2.32955
H          1.30682       -1.80922        1.80787
H          2.90706       -2.12377        2.48713
H          2.48319       -0.61081       -0.14876
H          2.60413       -2.36048       -0.05917
H          4.59545       -3.51749        0.32959
H          7.04782       -3.60730        0.31171
H          3.49854        1.17834        0.52610
H          7.20091        3.05220        0.46725
H          8.42271        1.03749        0.39331
H          3.70628        3.59753        0.80739
H          4.72568        4.06333       -0.55623
H          5.61079        4.22356        2.38142
H          6.94984        5.49619        0.26810
H          4.75004        6.46721        0.45027
H          5.43777        6.69036        2.08422
H          3.84484        5.93325        1.88072
H          9.30498       -0.80376       -0.23216
H          9.13721       -2.53984       -0.06262
H          8.95852       -2.32180        2.42505
H          9.10516       -0.57355        2.31055
H         11.38986       -0.81432        1.28263
H         11.23866       -2.56798        1.33881
H         11.07674       -2.48863        3.84512
H         11.21581       -0.73218        3.80856
H         13.49296       -0.91419        2.77458
H         13.35052       -2.66938        2.73596
H         13.19698       -2.72545        5.24333
H         13.32209       -0.96872        5.29867
H         15.59844       -1.08842        4.23410
H         15.47254       -2.84310        4.14743
H         15.31918       -2.95932        6.65737
H         15.44005       -1.20550        6.74838
H         17.62226       -3.07043        5.60403
H         17.67323       -2.26410        7.18286
H         17.74409       -1.30327        5.69351
