75

O          1.87489        0.08137       -1.53291
C          1.87716       -0.05700       -0.11226
C          2.81258       -1.23138        0.21748
P          2.39909       -2.66535       -0.86627
C          3.33714       -4.13087       -0.31179
C          3.18211       -5.38665       -1.18779
C          3.89049       -5.32477       -2.55088
C          3.13634       -6.13390       -3.61281
O          1.94106       -6.31569       -3.57440
O          3.86480       -6.60094       -4.65248
C          0.62215       -3.01016       -1.00627
C          0.18901       -3.56407       -2.37682
O         -1.21950       -3.57393       -2.33871
C         -1.80801       -4.32585       -3.41217
C         -3.31798       -4.16144       -3.29928
O         -3.87421       -5.04851       -4.25640
C         -5.24747       -5.08619       -4.38725
C         -6.13734       -4.26416       -3.68726
C         -7.51042       -4.39145       -3.91178
C         -8.04044       -5.31956       -4.82005
C         -7.12024       -6.14000       -5.49338
C         -5.74685       -6.02919       -5.29077
C         -9.55739       -5.41026       -5.04642
C        -10.14517       -4.06517       -5.58960
C         -9.75004       -3.40151       -6.94365
C        -10.12543       -4.25371       -8.17295
C        -10.56922       -2.09299       -7.01085
C         -8.25582       -3.03330       -7.02586
C         -9.94253       -6.60863       -5.93514
C        -10.23982       -5.65098       -3.67382
C          4.30301       -0.87245        0.06017
H          1.37672        0.87427       -1.78595
H          0.86118       -0.24631        0.27640
H          2.26437        0.84733        0.38718
H          2.60883       -1.56614        1.24820
H          2.86200       -2.32552       -2.15629
H          2.98455       -4.33074        0.71277
H          4.39051       -3.82248       -0.23004
H          2.12066       -5.61312       -1.35999
H          3.57640       -6.23625       -0.61324
H          4.93806       -5.65022       -2.46738
H          3.92739       -4.29512       -2.94807
H          4.81184       -6.40684       -4.53526
H          0.09055       -2.06318       -0.83492
H          0.34189       -3.70271       -0.19817
H          0.59432       -4.57624       -2.55587
H          0.56300       -2.90536       -3.18814
H         -1.53299       -5.39173       -3.32951
H         -1.45261       -3.95169       -4.38880
H         -3.60507       -3.11472       -3.50430
H         -3.64810       -4.41791       -2.27616
H         -5.78295       -3.52513       -2.96952
H         -8.17757       -3.72893       -3.35868
H         -7.47252       -6.88447       -6.20583
H         -5.04692       -6.67112       -5.82623
H         -9.96555       -3.30557       -4.80961
H        -11.24070       -4.20130       -5.61146
H        -11.15982       -4.62254       -8.11166
H         -9.46302       -5.11937       -8.29763
H        -10.04184       -3.64965       -9.08852
H        -11.65048       -2.29457       -6.98583
H        -10.35148       -1.54524       -7.93936
H        -10.33192       -1.42977       -6.16553
H         -7.60923       -3.91895       -7.05505
H         -7.94248       -2.42301       -6.16623
H         -8.06509       -2.44954       -7.93915
H         -9.45744       -6.60090       -6.91699
H        -11.02739       -6.60700       -6.10895
H         -9.68806       -7.55772       -5.44140
H        -10.08130       -4.81427       -2.98016
H         -9.84512       -6.56127       -3.20122
H        -11.32501       -5.77382       -3.80252
H          4.53131       -0.54813       -0.96352
H          4.96999       -1.70191        0.32566
H          4.54097       -0.04082        0.73616
