55

N          1.61230        0.25364        1.47824
C          2.96975        0.08109        0.96749
C          3.10754       -1.29357        0.29897
C          4.52651       -1.52307       -0.25305
C          4.66161       -2.77489       -1.05035
N          4.14903       -3.99394       -0.62682
C          4.41334       -4.98750       -1.50886
N          5.09698       -4.40112       -2.50719
C          5.26357       -3.04961       -2.25693
C          6.01741       -2.17771       -3.22017
C          7.51385       -1.84860       -2.82797
C          8.51361       -3.03329       -2.50876
C          8.89303       -4.13880       -3.57664
C          9.51874       -3.77641       -4.98328
C         10.89008       -2.99641       -5.10190
C         12.22830       -3.57656       -4.48704
C         12.72588       -4.99766       -4.94742
F         12.72236       -5.09922       -6.28605
F         13.97608       -5.17299       -4.49519
F         11.94472       -5.96774       -4.43194
F         13.18925       -2.68506       -4.83113
F         12.11517       -3.59171       -3.13323
F         11.08426       -2.83093       -6.43241
F         10.71463       -1.77192       -4.53792
F          9.65060       -4.95908       -5.63593
F          8.60074       -3.02678       -5.64776
F          9.72038       -4.99321       -2.93877
F          7.73578       -4.82938       -3.86398
F          9.65362       -2.46297       -2.07057
F          7.96043       -3.73558       -1.46603
F          8.03714       -1.06124       -3.78716
F          7.44351       -1.13148       -1.66677
F          6.00547       -2.77175       -4.45207
F          5.39360       -0.97047       -3.32645
C          4.03671       -6.38637       -1.41251
C          4.85446       -7.37259       -2.00007
C          4.48724       -8.71303       -1.91960
C          3.31426       -9.08112       -1.25199
C          2.50339       -8.10614       -0.66151
C          2.85689       -6.76162       -0.74029
H          1.38494        1.23963        1.59736
H          1.49579       -0.18786        2.39064
H          3.76529        0.19757        1.73181
H          3.15082        0.85953        0.21013
H          2.36270       -1.36841       -0.50747
H          2.85058       -2.06997        1.04205
H          5.25796       -1.54923        0.57337
H          4.82297       -0.68112       -0.89169
H          3.65566       -4.13239        0.25132
H          5.41494       -4.87061       -3.35195
H          5.79340       -7.09853       -2.48484
H          5.12357       -9.47517       -2.36856
H          3.03025      -10.13172       -1.19087
H          1.58502       -8.39359       -0.15019
H          2.19337       -6.00557       -0.31632
