81

C          0.85942        0.14641       -0.04492
C          2.37704        0.27091        0.10907
C          2.91405       -0.35918        1.39905
C          4.43611       -0.26309        1.53937
C          4.98460       -0.91413        2.81316
C          6.51216       -0.86406        2.91262
C          7.07650       -1.56286        4.15377
C          8.60745       -1.56649        4.20517
C          9.18447       -2.35409        5.38575
C         10.71534       -2.41826        5.38322
C         11.29426       -3.28210        6.50777
C         12.82110       -3.40542        6.45048
C         13.38739       -4.32588        7.53862
C         14.90508       -4.47225        7.40020
N         15.52907       -5.28094        8.46974
C         14.83853       -6.54799        8.80399
C         15.63663       -7.42501        9.76878
C         16.34309       -6.50334       10.76697
N         17.23941       -5.61311       10.03232
C         16.76030       -4.99525        8.93147
N         17.55423       -4.09896        8.30388
C         18.65261       -5.46559       10.43261
C         19.03649       -4.07397       10.90087
C         20.20923       -3.47562       10.42160
C         20.59017       -2.20391       10.85982
C         19.81029       -1.49175       11.78092
C         18.62999       -2.09761       12.25071
C         18.24788       -3.36612       11.82232
C         20.22471       -0.12930       12.26949
N         14.71982       -8.33506       10.46635
N         13.87545       -8.96502        9.50462
N         15.37893       -9.29112       11.28923
H          0.50877        0.60926       -0.97764
H          0.33135        0.63591        0.78711
H          0.54455       -0.90788       -0.05887
H          2.66496        1.33553        0.07898
H          2.87458       -0.19937       -0.75622
H          2.61084       -1.42080        1.43828
H          2.43285        0.12243        2.26884
H          4.73974        0.79829        1.51136
H          4.91079       -0.73384        0.66021
H          4.65344       -1.96701        2.85370
H          4.54055       -0.42489        3.69780
H          6.84709        0.18811        2.89857
H          6.94702       -1.32899        2.01003
H          6.71205       -2.60525        4.17787
H          6.67629       -1.08288        5.06395
H          8.97849       -0.52700        4.23756
H          8.99668       -1.99481        3.26442
H          8.78053       -3.38179        5.36491
H          8.83400       -1.91152        6.33451
H         11.12841       -1.39656        5.45169
H         11.05653       -2.81658        4.41135
H         10.84910       -4.29106        6.45485
H         10.99418       -2.86912        7.48631
H         13.27582       -2.40297        6.53610
H         13.11468       -3.79014        5.45804
H         12.89629       -5.30760        7.46246
H         13.14926       -3.92317        8.53682
H         15.34037       -3.46400        7.43978
H         15.15281       -4.91308        6.41760
H         14.63491       -7.08451        7.86844
H         13.87167       -6.31844        9.27062
H         16.41887       -7.99044        9.21033
H         16.95080       -7.07306       11.47808
H         15.59329       -5.93120       11.33963
H         18.27399       -3.61779        8.84148
H         17.25199       -3.67329        7.43905
H         19.29990       -5.76789        9.59355
H         18.81182       -6.19578       11.23774
H         20.84005       -4.01037        9.70684
H         21.50965       -1.75887       10.47563
H         18.00420       -1.56420       12.96892
H         17.32687       -3.80758       12.20934
H         21.04841        0.28135       11.67316
H         20.56254       -0.17889       13.31591
H         19.38694        0.58060       12.23631
H         13.06587       -9.31819       10.01707
H         14.34876       -9.79002        9.10962
H         15.46866       -8.93560       12.24034
H         16.30281       -9.56314       10.92700
