99

C         14.90168        1.20821       10.29273
C         14.34461        1.09375        8.87134
C         14.86825        2.17998        7.92498
C         14.32503        2.07034        6.49687
C         14.86125        3.14851        5.54945
C         14.33047        3.02824        4.11697
C         14.88609        4.09277        3.16582
C         14.35873        3.97920        1.73167
C         14.93561        5.03753        0.78611
C         14.40243        4.94910       -0.64724
C         15.00775        5.99800       -1.58536
C         14.45720        5.94771       -3.01375
C         15.09926        6.97953       -3.94621
C         14.51611        6.97513       -5.36453
C         15.11672        8.03436       -6.30054
C         16.57132        7.76297       -6.70867
C         17.16970        8.89086       -7.55382
C         18.57979        8.55715       -8.05139
N         19.19293        9.64805       -8.81304
C         19.11403        9.69658      -10.28616
C         19.26794       11.20286      -10.61079
N         19.77924       11.73019       -9.32245
C         19.67638       10.80274       -8.34683
N         19.90248       11.12420       -7.04701
C         20.60767       10.26170       -6.10674
C         21.92208        9.72249       -6.73726
O         22.18225       10.01791       -7.90926
N         22.70964        8.93882       -5.96373
C         22.41296        8.58633       -4.56796
C         21.67346        7.25453       -4.41601
C         23.95204        8.40129       -6.55105
C         25.15610        9.31694       -6.33139
C         17.95412       11.88196      -11.01403
C         18.02360       13.41214      -11.17927
C         18.98683       13.84320      -12.29518
C         16.61679       13.97784      -11.41581
H         14.50976        0.41627       10.94582
H         14.63885        2.17467       10.74830
H         15.99930        1.12987       10.29838
H         13.24273        1.13941        8.90178
H         14.59289        0.10197        8.45660
H         15.97182        2.13701        7.89931
H         14.61669        3.17339        8.33714
H         13.22210        2.12083        6.52040
H         14.57128        1.07384        6.08935
H         15.96475        3.10260        5.53359
H         14.60801        4.14611        5.94996
H         13.22793        3.08867        4.12958
H         14.57183        2.02542        3.72233
H         15.98881        4.02880        3.15379
H         14.64808        5.09586        3.56197
H         13.25732        4.05719        1.73973
H         14.58609        2.97338        1.33649
H         16.03668        4.94851        0.77117
H         14.72144        6.04246        1.19116
H         13.30396        5.05945       -0.63611
H         14.59952        3.94056       -1.05129
H         16.10502        5.86977       -1.61220
H         14.83347        7.00477       -1.16576
H         13.36507        6.10628       -2.99076
H         14.60589        4.93616       -3.43052
H         16.18762        6.79584       -3.97917
H         14.97584        7.98820       -3.51238
H         13.42855        7.14042       -5.30115
H         14.64068        5.97449       -5.81465
H         15.05166        9.02453       -5.81563
H         14.50311        8.10294       -7.21407
H         16.61721        6.81250       -7.26845
H         17.19541        7.61836       -5.81060
H         17.20476        9.82005       -6.96207
H         16.52253        9.09968       -8.42185
H         18.56063        7.68588       -8.72088
H         19.23752        8.27564       -7.21712
H         18.14132        9.31030      -10.61872
H         19.91146        9.07500      -10.72117
H         20.03689       11.35062      -11.37991
H         20.53934       12.40147       -9.29745
H         20.10506       12.11267       -6.93137
H         19.96244        9.43796       -5.77029
H         20.81483       10.87153       -5.21823
H         21.84482        9.39929       -4.09636
H         23.37313        8.55011       -4.03345
H         20.68833        7.27918       -4.90329
H         21.51867        7.02846       -3.35243
H         22.24594        6.42699       -4.85539
H         23.77152        8.25675       -7.62304
H         24.12353        7.41289       -6.10134
H         25.00395       10.28438       -6.82672
H         26.05840        8.85597       -6.75442
H         25.34303        9.49616       -5.26350
H         17.19206       11.63408      -10.25460
H         17.61565       11.42425      -11.95991
H         18.39085       13.83256      -10.22545
H         18.67371       13.43537      -13.26849
H         20.02322       13.51947      -12.11757
H         19.00601       14.93722      -12.38827
H         16.18754       13.59510      -12.35434
H         16.63974       15.07362      -11.48590
H         15.93105       13.70907      -10.59964
