48

N          3.21400       -1.35445       -0.20647
C          2.40039       -1.16303       -1.41938
C          2.66295        0.20733       -2.06302
C          4.14890        0.59983       -2.16614
C          4.98902       -0.48565       -2.82373
N          6.44306       -0.06578       -2.96474
C          7.14819        0.23027       -1.67719
C          6.89786       -0.51511       -0.52973
C          7.62277       -0.21079        0.62381
C          8.57468        0.81196        0.61861
C          8.80152        1.55465       -0.54226
C          8.08006        1.26510       -1.70161
C          7.24033       -0.97649       -3.91096
C          7.52956       -2.38122       -3.40280
C          8.06718       -3.24322       -4.58259
N          8.80559       -4.36060       -4.00977
C          9.86007       -4.92993       -4.86087
C         10.54205       -6.08003       -4.14071
O          9.53328       -7.06244       -3.87583
O          8.50609       -2.33186       -2.38775
H          3.02776       -2.27366        0.19654
H          2.94203       -0.67919        0.51167
H          1.31277       -1.25876       -1.24982
H          2.66743       -1.96786       -2.12351
H          2.15586        0.99099       -1.47913
H          2.19198        0.22080       -3.05819
H          4.54554        0.79809       -1.16174
H          4.23115        1.53904       -2.73861
H          4.64494       -0.70967       -3.84323
H          4.96838       -1.41103       -2.23845
H          6.41255        0.84100       -3.45115
H          6.14910       -1.30568       -0.50700
H          7.43916       -0.78352        1.53262
H          9.13579        1.03653        1.52565
H          9.53487        2.36044       -0.54905
H          8.25409        1.84161       -2.61396
H          8.19283       -0.46031       -4.08875
H          6.65592       -1.00727       -4.84233
H          6.59388       -2.84839       -3.02664
H          8.77891       -2.64049       -5.17034
H          7.24044       -3.53408       -5.25738
H          8.18051       -5.11872       -3.72590
H         10.60260       -4.14623       -5.07442
H          9.46297       -5.29357       -5.82811
H         10.99420       -5.71644       -3.20038
H         11.34214       -6.48722       -4.78248
H          9.92988       -7.79818       -3.38617
H          9.01069       -3.17626       -2.54500
