100

C          0.41873       -0.34943       -0.08117
C          1.94694       -0.27851       -0.11300
C          2.54911        0.35594        1.14426
C          4.07819        0.43762        1.12226
C          4.67568        1.08841        2.37310
C          6.20472        1.17380        2.35318
C          6.79814        1.83796        3.59889
C          8.32750        1.92099        3.58309
C          8.91654        2.59682        4.82447
C         10.44643        2.67364        4.81912
C         11.02535        3.33663        6.07207
C         12.55590        3.39499        6.09479
C         13.11411        4.02782        7.37268
C         14.64416        4.05325        7.44074
C         15.17281        4.65084        8.74825
C         16.69968        4.63023        8.86960
C         17.19575        5.20595       10.19979
C         18.72074        5.18072       10.34769
C         19.18468        5.75944       11.69379
C         20.70378        5.72997       11.81784
N         21.20933        6.42705       13.06916
C         20.88170        5.68378       14.34947
C         21.17067        6.56555       15.55822
C         22.63431        7.04100       15.61834
C         22.99681        7.68574       14.26146
C         22.69561        6.84356       13.00876
C         23.62937        5.64160       12.76188
C         24.08184        5.50379       11.29967
C         24.80425        4.18703       11.03214
C         25.11349        3.93908        9.51967
Br        26.26045        5.31815        8.73900
F         25.67881        2.73494        9.34751
F         23.92525        3.93819        8.85107
Br        26.45727        4.03599       12.07490
F         23.97058        3.14266       11.40737
C         23.57975        5.93436       16.12527
C         25.02106        6.41400       16.39090
C         25.84309        5.37574       17.07257
C         26.95302        4.79246       16.60694
F         27.48850        5.08724       15.41953
F         27.65255        3.87486       17.25001
F         25.39426        4.99315       18.29825
H          0.01544       -0.80692       -0.99517
H         -0.02344        0.65385        0.01207
H          0.06578       -0.94550        0.77368
H          2.27161        0.29462       -0.99794
H          2.36136       -1.29285       -0.24099
H          2.22671       -0.21794        2.03119
H          2.13187        1.37041        1.27380
H          4.39968        1.00240        0.22937
H          4.49597       -0.57779        1.00391
H          4.35394        0.52465        3.26652
H          4.25640        2.10341        2.48965
H          6.52686        1.73066        1.45559
H          6.62528        0.15835        2.24574
H          6.47299        1.28418        4.49734
H          6.37953        2.85458        3.70317
H          8.65385        2.46713        2.68056
H          8.74638        0.90354        3.48878
H          8.58416        2.05336        5.72658
H          8.50106        3.61588        4.91604
H         10.78248        3.22476        3.92333
H         10.86154        1.65503        4.72148
H         10.67237        2.79130        6.96520
H         10.62011        4.35972        6.16377
H         12.91664        3.95764        5.21610
H         12.96054        2.37313        5.98801
H         12.72512        3.47604        8.24658
H         12.72716        5.05745        7.46927
H         15.04383        4.62482        6.58512
H         15.03065        3.02523        7.32751
H         14.73644        4.09801        9.59872
H         14.81318        5.69012        8.84629
H         17.14511        5.19724        8.03397
H         17.06111        3.59279        8.76290
H         16.74163        4.63978       11.03147
H         16.83697        6.24458       10.30473
H         19.18227        5.75063        9.52363
H         19.08394        4.14382       10.25048
H         18.71137        5.18849       12.50707
H         18.82818        6.80157       11.78050
H         21.15946        6.26176       10.97106
H         21.09802        4.70529       11.83561
H         20.68876        7.31590       13.12361
H         21.47723        4.76205       14.34297
H         19.82339        5.40597       14.29737
H         20.90698        5.99959       16.46316
H         20.49259        7.43611       15.53404
H         22.67828        7.85277       16.36286
H         24.05867        7.96565       14.22005
H         22.43951        8.63440       14.17516
H         22.73765        7.51230       12.13454
H         23.16266        4.70270       13.09134
H         24.52148        5.76032       13.38904
H         24.74331        6.33345       11.01703
H         23.22298        5.52313       10.61209
H         23.60834        5.06920       15.44517
H         23.16686        5.55823       17.07391
H         24.99251        7.31471       17.02975
H         25.53489        6.70003       15.46229
