43

O          1.67974       -0.21603       -1.62474
C          2.40663       -0.28490       -0.39362
C          3.37003        0.90487       -0.33618
C          2.68405        2.25917       -0.43228
N          1.66283        2.43279        0.42764
C          1.06497        3.62888        0.73337
C         -0.14108        3.59819        1.63924
C         -0.26054        2.39289        2.56366
O          0.29708        1.31292        2.38628
O         -1.09282        2.64442        3.56855
C         -1.36674        1.53411        4.47431
C          1.60617        4.76565        0.19886
C          2.69085        4.68642       -0.71990
C          3.14433        3.38099       -1.16171
C          4.13102        3.32285       -2.22927
C          4.82705        4.49671       -2.54861
C          4.43217        5.73421       -2.02510
C          3.34404        5.84821       -1.17138
N          4.34361        2.12797       -2.91004
N          3.24342        1.53899       -3.56637
N          5.52728        1.91391       -3.63964
C          4.20558        0.86425        0.96495
H          1.15845       -1.02700       -1.73261
H          3.00549       -1.20873       -0.33338
H          1.71405       -0.29165        0.46953
H          4.06278        0.82251       -1.18054
H          1.31987        1.64222        1.01252
H         -1.05642        3.58978        1.01944
H         -0.19568        4.51970        2.23203
H         -2.08173        1.93329        5.19745
H         -0.44156        1.21902        4.97032
H         -1.79791        0.69461        3.91674
H          1.21469        5.74255        0.48222
H          5.63685        4.46179       -3.27509
H          4.96280        6.63110       -2.34676
H          3.00183        6.82416       -0.82848
H          2.50965        2.23469       -3.70803
H          2.86077        0.74464       -3.04284
H          6.33068        2.14445       -3.05494
H          5.54594        2.45787       -4.51124
H          3.57415        0.89581        1.86431
H          4.90423        1.70898        1.00645
H          4.79399       -0.06205        0.99713
