45

Br         1.13084       -0.63676        0.85565
C          2.95808       -0.44905        0.17756
C          3.27349        1.00790       -0.13699
C          4.69214        1.13649       -0.71693
C          5.23428        2.52996       -1.04650
C          4.99136        3.66880       -0.06034
C          5.44658        4.95434       -0.80113
C          5.56461        4.52487       -2.27806
N          4.83709        3.18956       -2.40126
C          3.32964        3.21634       -2.75252
C          2.92623        4.42885       -3.59168
O          2.88959        5.58761       -2.76825
C          2.98172        1.93203       -3.50516
C          6.77109        5.54123       -0.28839
C          6.65517        6.18950        1.09358
C          8.01183        6.69311        1.62768
C          7.89983        7.29232        2.94996
C          7.77626        7.77701        4.05118
H          3.01121       -1.08898       -0.71134
H          3.61226       -0.85953        0.95540
H          3.18322        1.60190        0.78378
H          2.50827        1.38630       -0.82861
H          4.82099        0.47447       -1.58892
H          5.40163        0.74397        0.03033
H          6.32257        2.41806       -1.18089
H          5.55920        3.49084        0.86195
H          3.93265        3.72921        0.22583
H          4.66013        5.71654       -0.72124
H          6.60787        4.31478       -2.55228
H          5.14708        5.24899       -2.97990
H          5.28196        2.65645       -3.15851
H          2.80243        3.28544       -1.79266
H          1.92961        4.20123       -4.00472
H          3.61188        4.55032       -4.45416
H          2.42713        6.29906       -3.23858
H          3.42065        1.93530       -4.51467
H          1.89331        1.85769       -3.61848
H          3.31518        1.02701       -2.98810
H          7.13486        6.29141       -1.01113
H          7.53662        4.74325       -0.26804
H          6.23865        5.47700        1.82310
H          5.94875        7.03302        1.05228
H          8.44025        7.42956        0.92652
H          8.73030        5.85611        1.66780
H          7.68647        8.21178        5.02451
