62

C          0.89530       -1.55274      -11.14953
C          2.41352       -1.36016      -11.18425
C          2.98462       -0.83913       -9.86081
C          4.50292       -0.63617       -9.87912
C          5.06257       -0.11786       -8.55021
C          6.57791        0.10626       -8.56852
C          7.12749        0.63505       -7.23900
C          8.64156        0.88426       -7.26941
C          9.15908        1.40060       -5.93144
O         10.60801        1.50822       -5.87447
C         11.11613        2.63494       -6.53029
N         12.57944        2.46433       -6.56156
C         13.25179        1.80630       -7.56152
N         14.53472        1.73174       -7.31367
N         14.67734        2.36107       -6.11239
C         13.50569        2.80288       -5.62451
C         13.34642        3.52807       -4.32698
C         13.03580        5.01993       -4.58999
O         12.25790        5.40580       -5.44025
O         13.71582        5.77900       -3.72708
C         13.48368        7.23560       -3.79264
C         14.41205        7.88790       -4.79815
C         12.28713        2.91556       -3.37953
C         16.01091        2.44956       -5.50388
C         16.23634        1.47190       -4.37981
C         15.39741        0.51820       -3.97541
H          0.51472       -1.92906      -12.10882
H          0.37749       -0.60579      -10.93585
H          0.60152       -2.27214      -10.37078
H          2.67892       -0.66051      -11.99498
H          2.90179       -2.31607      -11.43910
H          2.71985       -1.54067       -9.05006
H          2.49266        0.11581       -9.60431
H          4.76744        0.06930      -10.68649
H          4.99696       -1.58941      -10.13711
H          4.80819       -0.82874       -7.74477
H          4.55862        0.82879       -8.28751
H          6.83213        0.81485       -9.37629
H          7.08660       -0.83980       -8.82317
H          6.89253       -0.08271       -6.43442
H          6.60505        1.57069       -6.97507
H          8.86767        1.60121       -8.07741
H          9.17189       -0.05071       -7.51256
H          8.91863        0.69450       -5.12527
H          8.70817        2.37515       -5.67023
H         10.89448        3.58841       -6.02511
H         10.79506        2.70879       -7.58371
H         12.76701        1.40540       -8.44603
H         14.31631        3.47239       -3.81712
H         13.68435        7.56658       -2.76736
H         12.42659        7.39973       -4.03667
H         15.46291        7.66384       -4.57232
H         14.28282        8.97792       -4.74953
H         14.18436        7.56845       -5.82305
H         11.27027        3.01970       -3.77165
H         12.34626        3.42802       -2.41229
H         12.48934        1.84969       -3.22199
H         16.16921        3.48622       -5.16846
H         16.71473        2.26910       -6.32893
H         17.20694        1.59532       -3.89222
H         14.42746        0.34185       -4.44492
H         15.66495       -0.14728       -3.15624
