40

N          0.52731        0.00098        0.93027
C          1.85172       -0.18762        0.79327
N          2.37664       -0.29462       -0.43323
N          2.62487       -0.25936        1.88474
C          4.08937       -0.33274        1.89253
C          4.58562       -1.78967        1.93650
C          6.11436       -1.94710        1.89089
C          6.76575       -2.28551        0.49167
C          6.64318       -1.29294       -0.73310
C          7.21040        0.18307       -0.71069
C          8.73682        0.48884       -0.42600
C          9.88175       -0.08475       -1.35486
C          9.95079        0.26894       -2.89641
C         10.02332        1.78107       -3.32903
F         10.96675        2.43606       -2.63465
F         10.32205        1.83321       -4.63576
F          8.83545        2.38942       -3.13856
F         11.07868       -0.33173       -3.34591
F          8.88176       -0.29315       -3.52068
F         11.03724        0.33082       -0.78378
F          9.82883       -1.44130       -1.28195
F          8.83565        1.84225       -0.42487
F          9.00529        0.04290        0.82692
F          6.87206        0.71905       -1.90721
F          6.51661        0.86516        0.25340
F          7.14930       -1.92589       -1.80310
F          5.27593       -1.13179       -0.96671
F          8.07403       -2.54724        0.68563
F          6.15229       -3.43003        0.06090
F          6.73473       -0.84526        2.41604
F          6.45371       -3.01321        2.67619
H         -0.10352       -0.11756        0.14732
H          0.12043        0.26743        1.81823
H          1.83464       -0.04548       -1.25152
H          3.34696       -0.55183       -0.58032
H          2.15061       -0.35217        2.77801
H          4.43633        0.21557        2.77629
H          4.46833        0.22073        1.02671
H          4.14140       -2.39198        1.13277
H          4.27254       -2.24917        2.88476
