46

C          1.51683        1.58790        0.18850
O          2.81160        1.20367        0.67088
C          2.86535       -0.16256        1.03813
N          4.22331       -0.49732        1.40019
C          4.83518       -0.04083        2.53891
N          4.11455        0.00551        3.66946
C          4.54201        0.62381        4.92967
C          5.87956        1.32353        4.73783
C          6.79735        0.44139        3.88385
N          6.13218        0.28529        2.53248
C          6.87337        0.44276        1.27006
C          6.44412        1.59585        0.32120
C          6.65918        3.01931        0.84690
N          5.73004        3.33913        1.94308
O          7.13132        1.38933       -0.91057
C          8.22959        0.91907        3.79481
C          9.25799       -0.03502        3.75352
C         10.59561        0.35878        3.68232
C         10.92018        1.71761        3.66090
C          9.90358        2.67579        3.71444
C          8.56584        2.28132        3.78137
H          1.59149        2.64118       -0.10069
H          0.74804        1.47858        0.97260
H          1.22539        0.98936       -0.69119
H          2.57543       -0.81827        0.19834
H          2.17017       -0.37114        1.87432
H          4.84638       -0.63066        0.61060
H          3.19889       -0.42870        3.64261
H          4.61293       -0.16423        5.69521
H          3.76759        1.33520        5.25092
H          6.33691        1.51045        5.71697
H          5.74129        2.28134        4.21693
H          6.82505       -0.57463        4.31525
H          6.84515       -0.49596        0.69178
H          7.92444        0.58394        1.54727
H          5.37707        1.49446        0.06449
H          6.56217        3.68743       -0.02812
H          7.69045        3.12294        1.22486
H          4.76739        3.28071        1.60113
H          5.86399        4.31025        2.22941
H          8.05480        1.67812       -0.81581
H          9.00786       -1.09817        3.78089
H         11.38292       -0.39488        3.65288
H         11.96363        2.03018        3.61329
H         10.15381        3.73716        3.71319
H          7.78165        3.03704        3.82282
