71

C          1.04744        5.29666       11.77609
C          2.56338        5.15470       11.62125
C          2.97593        3.99129       10.71275
C          4.49226        3.84237       10.55742
C          4.91028        2.68509        9.64434
C          6.42888        2.54228        9.50774
C          6.86730        1.39455        8.59109
C          8.39270        1.27015        8.50278
C          8.85656        0.13643        7.60516
O         10.29714        0.10276        7.65024
C         10.87744       -0.94388        6.91594
C         12.36949       -0.89310        7.12273
C         13.25277       -1.81504        6.54817
C         14.62217       -1.72032        6.78195
C         15.15594       -0.71751        7.59434
N         14.26026        0.17294        8.13901
C         12.91667        0.10085        7.91560
C         14.71416        1.22246        9.11103
O         15.49063        0.96195        9.98849
O         14.09663        2.34593        8.81125
C         14.33229        3.51385        9.70248
C         15.18289        4.54388        8.98412
C         15.32911        5.82610        9.82052
C         16.14625        6.90315        9.10240
C         16.63097       -0.56870        7.87940
C         17.56507       -1.41596        7.00578
C         17.63841       -0.95771        5.53400
S         17.78113       -2.38890        4.44630
O         19.06099       -3.02992        4.64207
O         16.54254       -3.12948        4.55466
O         17.76939       -1.67887        2.99199
H          0.78675        6.13667       12.43441
H          0.60264        4.38725       12.20691
H          0.56112        5.47300       10.80507
H          3.02450        5.01936       12.61447
H          2.98288        6.09323       11.22045
H          2.51768        4.12684        9.71710
H          2.55521        3.05128       11.11155
H          4.94802        3.70233       11.55377
H          4.91263        4.78523       10.16464
H          4.46373        2.82780        8.64474
H          4.48763        1.74170       10.03214
H          6.87085        2.39401       10.50892
H          6.85133        3.48973        9.12898
H          6.44584        1.54798        7.58289
H          6.43944        0.44683        8.96076
H          8.80926        1.10782        9.51053
H          8.82318        2.21408        8.12995
H          8.52566        0.28548        6.56044
H          8.45997       -0.83627        7.95215
H         10.65677       -0.86122        5.83110
H         10.49950       -1.93439        7.24429
H         12.87621       -2.61512        5.90742
H         15.29159       -2.43117        6.29882
H         12.29734        0.85453        8.39256
H         14.79475        3.14527       10.62637
H         13.32057        3.88443        9.91119
H         14.72009        4.78230        8.01341
H         16.17793        4.11800        8.77576
H         15.80152        5.58295       10.78602
H         14.32781        6.22091       10.05865
H         17.16385        6.55295        8.87757
H         16.23514        7.80493        9.72159
H         15.67511        7.19665        8.15331
H         16.79750       -0.83036        8.93608
H         16.90931        0.49521        7.80621
H         17.27567       -2.47504        7.06869
H         18.56903       -1.36678        7.44458
H         18.50380       -0.31182        5.34028
H         16.73268       -0.43380        5.19734
H         18.66371       -1.77411        2.60883
