40

C          7.56179       -9.07546       -2.89755
C          8.47545       -7.90205       -2.55866
S          7.49268       -6.35628       -2.72954
C          8.68896       -5.19447       -2.33654
N          9.96346       -5.35743       -2.01032
N         10.47848       -4.10171       -1.80179
C          9.49648       -3.26146       -1.99002
O          8.31881       -3.86555       -2.34020
N          9.57884       -1.87387       -1.93967
C          8.49842       -1.18010       -1.13400
C          8.78014       -1.35900        0.37052
P         10.46044       -0.75944        0.78266
O         11.35155       -0.99315       -0.41663
O         10.44287        0.79461        1.08380
C          9.90126        1.40806        2.30899
C         10.51952        2.77996        2.45510
O         10.82359       -1.55904        2.09333
C         12.22616       -1.65636        2.58208
C         12.85978       -2.94512        2.11027
I          9.71185       -0.94062       -3.97088
H          8.13433      -10.00690       -2.79941
H          7.18830       -9.01749       -3.92830
H          6.70309       -9.13521       -2.21586
H          9.32940       -7.82524       -3.24199
H          8.84733       -7.94351       -1.52790
H         10.55345       -1.54583       -1.39616
H          7.52030       -1.58524       -1.41792
H          8.53581       -0.12290       -1.42130
H          8.71066       -2.41283        0.67506
H          8.01782       -0.80520        0.93697
H         10.13686        0.75613        3.16182
H          8.80822        1.46615        2.19486
H         11.60855        2.71265        2.57109
H         10.10686        3.26935        3.34763
H         10.29610        3.40824        1.58389
H         12.12677       -1.61506        3.67348
H         12.78114       -0.77063        2.24137
H         12.28312       -3.81517        2.44933
H         13.87048       -3.01962        2.53560
H         12.94575       -2.97248        1.01694
