29

O          2.96522       -0.15123       -0.82421
C          2.82263        0.63382        0.10571
C          1.61472        1.43161        0.34639
C          0.50570        1.21440       -0.49952
C         -0.65693        1.95484       -0.32466
C         -0.72408        2.92498        0.68418
C          0.37224        3.15201        1.52405
C          1.53684        2.40604        1.36279
C          4.04222        0.82478        1.06678
N          4.95315       -0.29763        0.93434
N          5.68342       -0.51880       -0.20112
N          5.79429        0.43754       -1.17657
N          6.35487       -1.64081       -0.11703
N          6.06055       -2.20957        1.04125
C          5.17855       -1.41518        1.67055
N          4.67566       -1.64621        2.94142
O          3.25154       -1.49688        2.90385
O          5.06653       -2.86535        3.45630
H          0.58003        0.45923       -1.28178
H         -1.51449        1.78240       -0.97492
H         -1.63613        3.50781        0.81626
H          0.31595        3.91123        2.30360
H          2.38117        2.60336        2.02497
H          3.75868        0.88184        2.12097
H          4.58954        1.73654        0.78213
H          5.03075        0.30962       -1.85103
H          6.71385        0.33507       -1.61308
H          3.03650       -1.23348        3.81994
H          4.80150       -3.57155        2.82264
