50

C          7.65728        4.10509       -1.40891
O          6.93497        2.95368       -1.85359
C          6.63124        2.06798       -0.77965
C          5.69030        0.98285       -1.25563
O          6.35296        0.22884       -2.27855
C          5.68111       -0.92650       -2.74628
C          6.27970       -1.21342       -4.12205
N          7.78062       -1.06466       -4.08723
C          8.48109       -2.28997       -3.55639
C          9.87803       -1.96977       -3.01744
C         10.39925       -3.03913       -2.04548
C         10.66552       -4.41699       -2.67900
N         11.14336       -5.38043       -1.70677
C         10.33731       -6.16277       -0.90208
C         11.14533       -6.82493        0.00207
C         12.48670       -6.42295       -0.25331
C         12.45693       -5.52801       -1.30561
C          8.33251       -0.50726       -5.37258
C          8.21450        1.03196       -5.27900
N          8.68198        1.44294       -3.95460
H          7.83237        4.73402       -2.28954
H          8.62624        3.82456       -0.95926
H          7.07383        4.67700       -0.66794
H          6.13737        2.61561        0.04521
H          7.55899        1.61672       -0.37694
H          4.76156        1.42125       -1.66233
H          5.43171        0.33434       -0.39942
H          4.59656       -0.75935       -2.87037
H          5.80980       -1.77157       -2.04352
H          5.90271       -0.47643       -4.84116
H          6.03214       -2.21881       -4.48737
H          8.00399       -0.25724       -3.42755
H          8.48635       -3.03986       -4.35947
H          7.85037       -2.67310       -2.74174
H          9.83333       -1.00676       -2.48479
H         10.59278       -1.83521       -3.84482
H          9.68912       -3.16236       -1.21204
H         11.33606       -2.67773       -1.59779
H         11.41390       -4.32786       -3.48229
H          9.75339       -4.83056       -3.13729
H          9.26304       -6.19610       -1.05599
H         10.81022       -7.53486        0.75146
H         13.37819       -6.76559        0.26176
H         13.25624       -4.99798       -1.81471
H          7.79624       -0.94103       -6.22561
H          9.38727       -0.80137       -5.43096
H          7.16900        1.34280       -5.41476
H          8.78279        1.47548       -6.10946
H          8.04369        2.07546       -3.46353
H          9.61556        1.84646       -3.96994
