79

N          5.51523       -0.14842        2.47236
C          5.59800        1.30785        2.65593
C          6.53864        1.93960        1.62348
C          6.07424        1.73271        0.17944
C          6.97543        2.41557       -0.85340
C          6.45523        2.24885       -2.28789
C          7.13460        3.17071       -3.30050
N          8.63308        2.90173       -3.34447
C          9.04175        1.60245       -4.01220
C         10.54673        1.45893       -3.80722
O         10.75757        1.65871       -2.42037
C         12.12818        1.53425       -1.98380
C         12.17162        1.80454       -0.49001
C         13.57977        1.67218        0.10363
C         13.61427        1.96527        1.60801
C         15.00692        1.82539        2.23249
C         15.02553        2.14400        3.72949
C          8.53474        1.60469       -5.44823
C          7.01816        1.85608       -5.49911
C          6.62266        3.14647       -4.75952
C          5.11195        3.41514       -4.83121
C          4.73602        4.73360       -4.13625
O          5.60565        5.59118       -3.92855
N          3.43661        4.89186       -3.75331
C          3.06679        6.07271       -2.95741
C          2.86932        5.76201       -1.46588
C          4.12271        5.22679       -0.76271
C          3.89808        4.92994        0.72177
C          2.39891        3.89315       -3.99589
H          4.73620       -0.53409        3.00547
H          6.35752       -0.60084        2.83142
H          5.92176        1.61412        3.66891
H          4.58542        1.71896        2.51455
H          7.55271        1.52019        1.75197
H          6.62651        3.01705        1.84233
H          5.04941        2.12801        0.07105
H          6.00577        0.65327       -0.02472
H          7.99901        2.00736       -0.75577
H          7.04355        3.49362       -0.62128
H          5.38834        2.51687       -2.29817
H          6.49488        1.19155       -2.59448
H          7.04802        4.20662       -2.94265
H          9.04743        2.87926       -2.39661
H          9.08550        3.68254       -3.84108
H          8.54269        0.81653       -3.42659
H         11.10820        2.20213       -4.41120
H         10.86542        0.45267       -4.13530
H         12.75577        2.25418       -2.54163
H         12.48814        0.51579       -2.21771
H         11.48648        1.10358        0.01413
H         11.78310        2.81931       -0.30071
H         14.26920        2.35806       -0.41812
H         13.96374        0.65410       -0.08050
H         12.91334        1.28819        2.12742
H         13.23620        2.98720        1.78787
H         15.71126        2.48977        1.70418
H         15.37728        0.79960        2.06751
H         14.70497        3.17860        3.92245
H         16.03201        2.02588        4.15242
H         14.35105        1.47890        4.28885
H          8.78506        0.63988       -5.91136
H          9.06886        2.37747       -6.02872
H          6.48563        0.98991       -5.07338
H          6.69718        1.92762       -6.54784
H          7.11517        3.99916       -5.26126
H          4.55014        2.56669       -4.41510
H          4.81745        3.48087       -5.89169
H          2.14270        6.49162       -3.38345
H          3.86861        6.80794       -3.09455
H          2.03751        5.04860       -1.33431
H          2.54115        6.69434       -0.97854
H          4.94408        5.95098       -0.88547
H          4.45489        4.30634       -1.27093
H          3.57348        5.82842        1.26565
H          4.81622        4.56783        1.20417
H          3.12293        4.16178        0.86400
H          2.41611        3.07334       -3.25847
H          2.48010        3.46742       -5.00317
H          1.42150        4.38563       -3.92669
