57

C          1.04155        1.77340       -1.58857
C          2.51637        1.48218       -1.29958
C          3.08615        0.34456       -2.15489
C          4.56467        0.05255       -1.87397
C          5.12940       -1.07873       -2.74393
C          6.58953       -1.36159       -2.43976
O          7.04457       -2.42880       -3.30061
C          8.38484       -2.80100       -3.03535
C          8.72086       -3.86653       -4.05394
C          8.97065       -3.41562       -5.35449
N          9.24848       -4.26673       -6.35160
N          9.28366       -5.58825       -6.20298
C          9.02799       -6.04683       -4.98747
C          8.73712       -5.25569       -3.85123
C          8.50525       -5.97072       -2.54635
C          9.66312       -5.67724       -1.56280
O         10.36334       -4.68400       -1.60520
O          9.75191       -6.66820       -0.67082
C         10.79126       -6.54041        0.36644
C         12.11292       -7.10703       -0.11482
C          7.12818       -5.68194       -1.89431
C          9.53555       -3.79637       -7.73236
C          8.46451       -4.21884       -8.73967
C          7.09710       -3.59807       -8.48755
F          7.18149       -2.24583       -8.34420
F          6.24979       -3.85885       -9.49833
F          6.53351       -4.07914       -7.33932
H          0.66501        2.59361       -0.96290
H          0.41338        0.89178       -1.39261
H          0.88887        2.06083       -2.63935
H          2.64116        1.23169       -0.23260
H          3.11259        2.39501       -1.46713
H          2.95952        0.59250       -3.22326
H          2.49423       -0.57195       -1.98528
H          4.68857       -0.20420       -0.80757
H          5.15424        0.97145       -2.03602
H          5.02982       -0.81955       -3.81018
H          4.54741       -2.00116       -2.58706
H          6.72415       -1.66723       -1.38435
H          7.21614       -0.46557       -2.61084
H          8.53064       -3.16214       -2.00734
H          9.08000       -1.94736       -3.17154
H          8.94870       -2.35699       -5.61148
H          9.06539       -7.13549       -4.91006
H          8.54609       -7.05119       -2.74909
H         10.37877       -7.11087        1.20642
H         10.87024       -5.48086        0.64022
H         12.00406       -8.15194       -0.43291
H         12.83722       -7.07904        0.71088
H         12.52522       -6.51735       -0.94325
H          7.02907       -4.64385       -1.55972
H          6.99951       -6.34254       -1.02929
H          6.32313       -5.88571       -2.61075
H         10.50017       -4.23623       -8.01324
H          9.64026       -2.70628       -7.68779
H          8.35156       -5.31080       -8.75913
H          8.79627       -3.89911       -9.73708
