29

C          1.01826       -0.17109       -0.29759
N          2.47585       -0.19831       -0.05687
S          3.09926       -1.76421       -0.35169
Si         5.41883       -1.68259       -0.11103
C          5.79774       -0.70554        1.43123
C          5.82970       -3.50245        0.03391
C          6.02914       -0.97278       -1.72629
C          2.69721       -2.53925        1.45412
O          2.47227       -1.76968        2.32434
C          2.61980       -4.02646        1.42120
C          3.17998        0.92545       -0.69279
H          0.53063       -0.98685        0.24975
H          0.75131       -0.23381       -1.36606
H          0.64327        0.77590        0.11181
H          5.37992       -1.18106        2.32765
H          5.43741        0.32921        1.39092
H          6.89295       -0.67479        1.54459
H          5.56433       -3.93242        1.00706
H          6.92394       -3.57952       -0.06905
H          5.39088       -4.10797       -0.77017
H          5.78728        0.08678       -1.86570
H          5.64304       -1.54191       -2.58257
H          7.12659       -1.06934       -1.73012
H          3.13897       -4.45763        0.55898
H          1.55293       -4.29500        1.34634
H          3.00392       -4.43597        2.36467
H          2.68334        1.84148       -0.34777
H          3.14821        0.90522       -1.79561
H          4.22013        0.96904       -0.35445
