96

C         10.17536      -16.17009       11.34453
C          9.70137      -15.26563       10.20415
C         10.25066      -13.83719       10.29397
C          9.74865      -12.91483        9.17844
C         10.31287      -11.49189        9.25307
C          9.75954      -10.56017        8.16984
C         10.35281       -9.14741        8.20217
C          9.74336       -8.21314        7.15166
C         10.36671       -6.81245        7.12392
C          9.72064       -5.89928        6.07372
C         10.23645       -4.45068        6.03316
C         11.74448       -4.29884        5.74851
C         12.23444       -4.94107        4.50004
N         13.21631       -4.30512        3.95173
C         13.59412       -3.10436        4.74700
C         12.36537       -2.86084        5.64312
C         11.45112       -1.77154        5.03749
C         10.52388       -1.04349        6.02672
P         11.46279       -0.24031        7.37331
O         12.84857        0.13884        6.99011
O         10.56062        0.96254        7.93074
C         10.90301        2.35604        7.63210
C         10.41830        2.78093        6.25807
O         11.31098       -1.35921        8.51920
C         12.00622       -1.17312        9.79532
C         13.29162       -1.97896        9.82649
C         13.95699       -4.70337        2.74394
C         15.41285       -5.08398        3.03919
C         16.17143       -5.42836        1.75124
C         17.63759       -5.79566        2.00739
C         18.42211       -6.06970        0.72000
C         19.89089       -6.42974        0.96583
C         20.68293       -6.66522       -0.32410
C         22.15330       -7.02665       -0.08642
C         22.93801       -7.24579       -1.38204
H          9.76924      -17.18638       11.24845
H          9.85912      -15.77810       12.32275
H         11.27250      -16.25170       11.36148
H          8.59879      -15.22994       10.19669
H          9.99470      -15.70658        9.23621
H         11.35459      -13.87011       10.27520
H          9.97960      -13.40464       11.27341
H          8.64578      -12.87145        9.21295
H         10.00133      -13.35535        8.19771
H         11.41397      -11.53166        9.17704
H         10.09487      -11.06386       10.24726
H          8.66217      -10.49620        8.27338
H          9.94114      -11.00678        7.17622
H         11.44601       -9.20741        8.05398
H         10.20803       -8.71109        9.20597
H          8.65824       -8.12217        7.33047
H          9.84419       -8.67338        6.15251
H         11.45171       -6.91536        6.94024
H         10.27315       -6.34485        8.11981
H          8.63687       -5.85206        6.26365
H          9.80948       -6.36517        5.07587
H         10.04593       -3.96690        7.00315
H          9.66344       -3.88793        5.28142
H         12.27971       -4.83337        6.56225
H         11.86387       -5.86587        4.05242
H         13.83057       -2.27582        4.06682
H         14.50081       -3.35008        5.32049
H         12.70596       -2.53230        6.63150
H         10.85472       -2.17926        4.20462
H         12.11288       -1.00925        4.60099
H          9.76031       -1.69272        6.47317
H          9.98740       -0.24432        5.49588
H         11.99092        2.47429        7.72941
H         10.40771        2.92599        8.42805
H         10.96319        2.25557        5.46086
H         10.59719        3.85693        6.12357
H          9.34170        2.59793        6.14083
H         11.29345       -1.50823       10.55997
H         12.19888       -0.10171        9.95390
H         13.08902       -3.04447        9.64871
H         13.76429       -1.88595       10.81449
H         14.00026       -1.61336        9.07182
H         13.91501       -3.84696        2.05290
H         13.41172       -5.53928        2.28488
H         15.42910       -5.93839        3.73547
H         15.92206       -4.24820        3.54471
H         16.12606       -4.56707        1.06267
H         15.66693       -6.26221        1.23381
H         17.68504       -6.68100        2.66470
H         18.12593       -4.97659        2.56362
H         18.36932       -5.18069        0.06742
H         17.93385       -6.88580        0.15938
H         19.94522       -7.33234        1.59946
H         20.37180       -5.62339        1.54704
H         20.62831       -5.76036       -0.95504
H         20.20055       -7.46861       -0.90847
H         22.20704       -7.93550        0.53676
H         22.63227       -6.22744        0.50441
H         22.50159       -8.05743       -1.98277
H         23.98469       -7.50958       -1.17876
H         22.94019       -6.33903       -2.00521
