59

C          1.17378       -0.92152       -0.42268
C          2.64306       -0.54855       -0.24985
S          3.62975       -1.61897       -1.37290
C          5.21045       -1.04936       -0.99882
N          5.62222       -0.13578       -0.14987
N          7.01445       -0.09056       -0.25962
C          7.31976       -0.97127       -1.14672
O          6.27085       -1.63830       -1.69107
N          8.63016       -1.27755       -1.66565
C          9.72950       -1.13050       -0.62016
C          9.95650       -2.41636        0.19307
O         11.12042       -2.09075        0.93586
C         11.84785       -3.22386        1.44813
C         13.17935       -2.76954        1.98985
C         13.94767       -1.80908        1.31573
C         15.19757       -1.43216        1.80976
C         15.70056       -2.02156        2.97430
C         14.94207       -2.98149        3.64895
C         13.68365       -3.34644        3.16312
C          8.77981       -2.82876        1.07775
C          8.93258       -0.51769       -2.96336
C          9.89206       -1.39589       -3.77062
O          9.40893       -2.72441       -3.64282
Si        10.00018       -4.06957       -4.55019
C          8.91013       -5.46987       -3.96770
C          9.78297       -3.68535       -6.36969
C         11.80281       -4.32921       -4.10680
H          0.56774       -0.28131        0.23162
H          0.98218       -1.96583       -0.14265
H          0.83140       -0.76662       -1.45456
H          3.00060       -0.72002        0.77269
H          2.84333        0.49378       -0.52629
H          8.64932       -2.26644       -2.03677
H          9.45428       -0.28384        0.01990
H         10.64937       -0.89257       -1.16501
H         10.18902       -3.23963       -0.51892
H         11.98893       -3.95182        0.62284
H         11.27366       -3.72809        2.24455
H         13.55669       -1.34432        0.40963
H         15.78350       -0.67673        1.28414
H         16.67919       -1.72927        3.35661
H         15.32540       -3.44085        4.56103
H         13.08774       -4.08646        3.70282
H          8.50870       -2.01988        1.76838
H          9.04515       -3.71731        1.66407
H          7.89288       -3.10106        0.48551
H          9.33117        0.47005       -2.70630
H          7.97323       -0.41419       -3.48462
H         10.92753       -1.31031       -3.39663
H          9.88073       -1.04215       -4.81513
H          7.85092       -5.27219       -4.18266
H          9.01703       -5.65033       -2.88880
H          9.18368       -6.40169       -4.48322
H          8.73248       -3.48271       -6.62045
H         10.10347       -4.54964       -6.97013
H         10.38885       -2.82889       -6.69847
H         11.93773       -4.51495       -3.03177
H         12.43437       -3.47525       -4.39053
H         12.19500       -5.20702       -4.64126
