72

C          1.12589        0.32696        0.25661
C          2.64825        0.24533        0.11790
C          3.15113        0.60998       -1.28330
C          4.67456        0.53905       -1.43020
C          5.17355        0.91599       -2.82876
C          6.69808        0.86572       -2.97370
C          7.19236        1.25813       -4.37002
C          8.71789        1.23128       -4.50890
C          9.21106        1.62809       -5.90517
C         10.74161        1.62682       -6.01698
C         11.22657        1.99061       -7.40824
O         12.67248        2.01498       -7.39054
C         13.23276        2.28255       -8.65651
C         14.72465        2.38958       -8.47075
N         15.45901        1.33983       -8.87611
C         16.82093        1.25632       -8.76783
C         17.50975        2.30681       -8.22576
C         16.82461        3.46547       -7.77369
C         15.38405        3.49335       -7.88064
C         14.65564        4.61622       -7.41718
C         15.32069        5.69801       -6.87831
C         14.57991        6.91354       -6.37215
C         14.90369        8.22062       -7.12120
C         14.25197        8.41558       -8.47686
Br        15.06434        7.26654       -9.87306
Br        14.24028        9.72964       -6.01197
C         16.73650        5.65485       -6.77419
C         17.50351        4.58788       -7.20801
C         19.01029        4.60316       -7.07479
C         19.60443        5.96613       -6.78571
C         19.87032        6.43950       -5.41388
O         20.93131        5.95319       -6.25304
H          0.79857        0.06259        1.27154
H          0.62324       -0.35766       -0.44285
H          0.75913        1.34234        0.04384
H          2.98797       -0.77324        0.37156
H          3.12202        0.91323        0.85742
H          2.80743        1.62813       -1.53889
H          2.68071       -0.06015       -2.02468
H          5.01896       -0.48027       -1.18131
H          5.14355        1.20527       -0.68448
H          4.81811        1.93087       -3.08032
H          4.71370        0.24334       -3.57413
H          7.05608       -0.15029       -2.73098
H          7.15730        1.53384       -2.22372
H          6.82191        2.26879       -4.61648
H          6.74470        0.58198       -5.11946
H          9.09130        0.22163       -4.26445
H          9.16433        1.90814       -3.75951
H          8.82296        2.62982       -6.15852
H          8.78343        0.93748       -6.65241
H         11.13795        0.63386       -5.75129
H         11.17032        2.34096       -5.29537
H         10.85220        2.98482       -7.71982
H         10.88322        1.25177       -8.15699
H         12.84456        3.22261       -9.09610
H         13.00449        1.47629       -9.38573
H         14.95752        0.55083       -9.28542
H         17.28000        0.34062       -9.13156
H         18.59220        2.23107       -8.14818
H         13.56926        4.62418       -7.49034
H         14.84840        7.06184       -5.31546
H         13.49486        6.73876       -6.40096
H         15.98480        8.39577       -7.18256
H         14.39951        9.43244       -8.84768
H         13.18451        8.17104       -8.46620
H         17.24558        6.50938       -6.32571
H         19.47022        4.22830       -8.00403
H         19.32593        3.90954       -6.27658
H         19.44604        6.72145       -7.56705
H         19.61817        5.79586       -4.56430
H         19.89671        7.51328       -5.20594
