55

C          1.54663        0.83018       -3.65444
C          3.04151        0.55041       -3.47974
C          3.34876       -0.92494       -3.19727
C          4.84375       -1.22079       -3.04212
C          5.13861       -2.68563       -2.69838
C          6.64040       -2.97908       -2.58432
C          6.91259       -4.40162       -2.13341
O          8.35348       -4.59999       -2.09533
C          8.74129       -5.81636       -1.55051
N         10.25408       -5.74177       -1.54485
C         10.72201       -4.76002       -0.48315
C         12.22876       -4.53732       -0.59959
N         12.99657       -5.76922       -0.61213
C         12.53120       -6.71134       -1.60561
C         11.02230       -7.10860       -1.55403
C         10.60556       -7.83951       -2.85173
C         11.60425       -8.86505       -3.40632
F         10.99008       -9.47554       -4.50041
C         10.62510       -7.88367       -0.27395
C         11.26530       -9.23920       -0.12777
C         10.57857      -10.38355       -0.09400
H          1.35729        1.89447       -3.84852
H          0.98026        0.55199       -2.75320
H          1.12852        0.25941       -4.49669
H          3.43971        1.16711       -2.65622
H          3.58522        0.86816       -4.38545
H          2.93627       -1.54582       -4.01171
H          2.81708       -1.23666       -2.28098
H          5.26630       -0.57265       -2.25467
H          5.37010       -0.94972       -3.97363
H          4.69301       -3.34059       -3.46634
H          4.63749       -2.94182       -1.74893
H          7.10520       -2.28436       -1.86613
H          7.13188       -2.81079       -3.55569
H          6.47158       -5.13983       -2.82674
H          6.50244       -4.58493       -1.12380
H          8.43554       -6.68053       -2.16343
H          8.40165       -5.95620       -0.50878
H         10.47256       -5.30572       -2.45679
H         10.44329       -5.18442        0.48915
H         10.14634       -3.84100       -0.64959
H         12.55826       -3.89833        0.23033
H         12.44719       -3.97937       -1.52847
H         13.10810       -6.17898        0.31372
H         13.13170       -7.62765       -1.54034
H         12.73508       -6.27867       -2.60277
H         10.43245       -7.10435       -3.65738
H          9.65858       -8.37810       -2.69898
H         11.84580       -9.64741       -2.67461
H         12.53190       -8.39941       -3.77003
H          9.53246       -8.01521       -0.25753
H         10.88697       -7.28020        0.61086
H         12.35160       -9.26416        0.00301
H          9.49165      -10.40727       -0.19955
H         11.07776      -11.34118        0.05118
