58

O          5.20536        6.11639        2.75640
C          5.09692        5.85485        1.35295
C          4.42748        4.51173        1.16507
O          5.31420        3.48351        1.60024
C          4.72079        2.19713        1.61713
C          5.75265        1.20475        2.14193
C          6.44003        1.63925        3.45628
N          7.47746        0.67162        3.82617
C          6.96341       -0.54040        4.44205
C          6.01508       -0.32421        5.64402
N          4.90590        0.62712        5.17694
C          5.46096        1.91520        4.61163
C          3.80932        0.83094        6.19525
C          2.59030        1.51666        5.56823
O          2.27567        0.98972        4.28619
C          1.57095       -0.26265        4.27023
C          2.17197       -1.13389        3.19041
O          3.53846       -1.41888        3.56961
C          6.74227        0.13126        6.90859
O          5.89108       -0.02993        8.02401
C          6.54021        0.22806        9.28156
C          5.54415       -0.03082       10.40094
C          6.14965        0.21267       11.78659
H          5.62833        6.98067        2.87100
H          6.09104        5.83722        0.87149
H          4.48109        6.62075        0.84812
H          4.17025        4.37414        0.09727
H          3.48921        4.47824        1.75259
H          4.40067        1.89342        0.60110
H          3.80740        2.20261        2.24818
H          6.55636        1.07302        1.40463
H          5.25736        0.22586        2.24492
H          6.93351        2.59921        3.25127
H          8.21291        1.10297        4.38337
H          7.80485       -1.16559        4.76912
H          6.42541       -1.12603        3.67965
H          5.49365       -1.26491        5.87658
H          4.43409        0.11424        4.39630
H          5.95839        2.44363        5.43489
H          4.61606        2.52497        4.27611
H          4.20519        1.40583        7.03964
H          3.56395       -0.17072        6.57033
H          2.76964        2.58909        5.41233
H          1.74654        1.42980        6.27441
H          0.50431       -0.08244        4.05580
H          1.64539       -0.77412        5.24437
H          2.14708       -0.60612        2.22247
H          1.59096       -2.06599        3.10487
H          3.90727       -2.05416        2.93643
H          7.10796        1.17495        6.83150
H          7.64129       -0.50919        7.00621
H          6.90149        1.27464        9.30577
H          7.42327       -0.43266        9.37867
H          5.18746       -1.06927       10.31912
H          4.66647        0.61805       10.25195
H          7.01589       -0.43916       11.96892
H          5.41249        0.00743       12.57275
H          6.48185        1.25356       11.90768
