88

C          0.57945        0.88194        0.87510
C          2.11014        0.88228        0.88987
C          2.71466       -0.51631        1.05571
C          4.24652       -0.53538        1.05548
C          4.83674       -1.94201        1.19583
C          6.36817       -1.98383        1.16643
C          6.93241       -3.40445        1.26669
C          8.46120       -3.48140        1.19959
C          8.98774       -4.91955        1.23867
C         10.51076       -5.03802        1.11889
C         10.98656       -6.49236        1.04359
C         12.49847       -6.65233        0.85032
C         12.90415       -8.10849        0.59659
C         14.40298       -8.29545        0.33436
C         14.72519       -9.72769       -0.08817
N         16.15246       -9.84573       -0.43384
C         16.88005      -10.95278       -0.59123
N         18.22467      -10.94026       -0.60384
C         18.76835      -12.22987       -1.02995
C         17.56426      -13.16210       -0.77790
N         16.40713      -12.21890       -0.71724
C         15.18616      -12.54597       -1.44197
C         15.24275      -12.01153       -2.88283
O         16.22531      -11.46129       -3.34429
O         14.08067      -12.22635       -3.49999
C         13.98024      -11.79283       -4.90544
C         14.45583      -12.87853       -5.85695
C         14.26708      -12.46260       -7.32229
C         14.72407      -13.53933       -8.31258
C         14.52918      -13.13897       -9.77938
C         14.97150      -14.22404      -10.76410
C         17.68845      -13.97314        0.52866
C         16.49536      -14.75168        0.82511
C         15.49516      -15.39214        1.05285
H          0.17596        1.89641        0.75145
H          0.17121        0.47483        1.81241
H          0.18800        0.26607        0.05149
H          2.47194        1.53361        1.70354
H          2.48760        1.33091       -0.04485
H          2.34326       -1.16973        0.24614
H          2.34377       -0.96374        1.99509
H          4.62212        0.10447        1.87333
H          4.61612       -0.07727        0.12090
H          4.44314       -2.58120        0.38561
H          4.47793       -2.39620        2.13642
H          6.77029       -1.36710        1.98924
H          6.72764       -1.51408        0.23373
H          6.50636       -4.01803        0.45297
H          6.58467       -3.87006        2.20567
H          8.89900       -2.90220        2.03122
H          8.81037       -2.99179        0.27327
H          8.51980       -5.49246        0.41822
H          8.65469       -5.40708        2.17160
H         10.99317       -4.52941        1.97148
H         10.84732       -4.50044        0.21489
H         10.46637       -6.99069        0.20618
H         10.67366       -7.03173        1.95443
H         13.03429       -6.26066        1.73171
H         12.82318       -6.03378       -0.00473
H         12.33804       -8.48653       -0.27265
H         12.60013       -8.73335        1.45358
H         14.98472       -8.03012        1.23225
H         14.71845       -7.60766       -0.47028
H         14.10405       -9.98985       -0.95928
H         14.49980      -10.43558        0.72370
H         16.64643       -8.96667       -0.55803
H         18.78485      -10.12264       -0.39687
H         19.63796      -12.50605       -0.42065
H         19.05930      -12.20026       -2.09011
H         17.41167      -13.84178       -1.62544
H         14.29305      -12.16625       -0.93210
H         15.08031      -13.63773       -1.44819
H         14.55894      -10.86645       -5.01843
H         12.91159      -11.57989       -5.03076
H         13.89690      -13.80576       -5.65369
H         15.51999      -13.09047       -5.66651
H         14.82312      -11.52889       -7.51442
H         13.20402      -12.22859       -7.50415
H         14.17368      -14.47526       -8.11323
H         15.78909      -13.77040       -8.13521
H         15.08669      -12.20826       -9.97880
H         13.46661      -12.89701       -9.94996
H         16.03883      -14.46261      -10.64478
H         14.81733      -13.90763      -11.80433
H         14.40584      -15.15533      -10.61339
H         17.90586      -13.28605        1.36422
H         18.55829      -14.64487        0.43571
H         14.62976      -15.98288        1.27229
