76

C          0.34422        0.25112       -0.40935
C          1.84336       -0.03419       -0.29149
C          2.48262       -0.47675       -1.61208
C          3.98827       -0.74091       -1.51027
C          4.63326       -1.13254       -2.84394
C          6.14934       -1.33594       -2.75335
C          6.81258       -1.61644       -4.10659
C          8.33963       -1.71283       -4.02094
C          9.01906       -1.88075       -5.38533
C         10.55174       -1.84542       -5.28052
C         11.21116       -1.92045       -6.65125
N         12.67499       -1.72488       -6.64023
C         13.44718       -1.71752       -5.60358
C         14.87720       -1.51734       -5.93540
C         14.82600       -1.13837       -7.43780
C         13.44482       -1.66084       -7.90547
C         13.58378       -3.09644       -8.50626
O         13.44401       -4.06574       -7.78991
C         13.92572       -3.15818       -9.96896
C         15.58481       -0.48428       -5.04367
O         16.90085       -0.40499       -5.52502
C         17.68462        0.62342       -4.88733
C         19.08522        0.58873       -5.47177
C         19.99232        1.68492       -4.90084
C         21.41476        1.63298       -5.46842
C         22.33321        2.72764       -4.91780
C         23.75903        2.66892       -5.47734
C         24.66680        3.77541       -4.93496
H         -0.08333        0.56383        0.55288
H         -0.20775       -0.63965       -0.74385
H          0.14642        1.05297       -1.13621
H          2.01221       -0.81197        0.47237
H          2.36213        0.86690        0.07730
H          2.30246        0.29796       -2.37836
H          1.97366       -1.38555       -1.97857
H          4.17322       -1.53372       -0.76436
H          4.48870        0.16274       -1.11918
H          4.41932       -0.34800       -3.59126
H          4.15875       -2.05215       -3.22848
H          6.37116       -2.16076       -2.05413
H          6.60665       -0.43344       -2.31041
H          6.54168       -0.81227       -4.81305
H          6.40473       -2.54763       -4.53611
H          8.62315       -2.55119       -3.36177
H          8.72849       -0.79978       -3.53670
H          8.68346       -1.07393       -6.05900
H          8.69828       -2.82712       -5.85134
H         10.89285       -2.68115       -4.64765
H         10.84973       -0.90942       -4.77750
H         10.81033       -1.14703       -7.32577
H         11.03345       -2.89685       -7.13079
H         13.03155       -1.84547       -4.60339
H         15.39646       -2.48351       -5.78522
H         15.65672       -1.57162       -8.00353
H         14.88073       -0.04729       -7.55224
H         12.93492       -0.99329       -8.61317
H         14.63052       -2.36914      -10.26570
H         13.00189       -2.99204      -10.54780
H         14.32317       -4.14645      -10.22074
H         15.55066       -0.80795       -3.98381
H         15.06708        0.49646       -5.11242
H         17.70324        0.44489       -3.79556
H         17.20327        1.60544       -5.06063
H         19.01375        0.69420       -6.56662
H         19.52498       -0.40279       -5.27810
H         20.03533        1.59611       -3.80156
H         19.55165        2.67527       -5.10957
H         21.37030        1.71223       -6.56879
H         21.85486        0.64342       -5.25453
H         22.37128        2.65382       -3.81656
H         21.89587        3.71750       -5.13813
H         23.71900        2.73040       -6.57821
H         24.19840        1.68364       -5.24639
H         24.27501        4.77266       -5.18517
H         25.68072        3.70359       -5.35117
H         24.75354        3.72061       -3.83946
