45

C          2.43931       -0.14121       -2.65892
C          3.79423        0.52935       -2.76469
O          4.85446       -0.38758       -2.32172
P          5.58126       -0.21081       -0.91907
O          6.37603        1.05162       -0.76346
O          4.49074       -0.40830        0.23815
C          3.89490        0.71523        0.96367
C          4.23023        0.60889        2.43644
C          6.54831       -1.73682       -0.82827
C          7.52245       -1.79462        0.36838
C          8.96993       -1.34656        0.08446
P          9.35336        0.43500        0.06949
N          8.80922        1.28149        1.39241
N          9.17750        0.63064        2.59136
N          7.75597        2.21939        1.40553
C         11.16587        0.62315       -0.09239
C         11.72304       -0.20891       -1.23507
C         12.24082        0.40538       -2.46903
O         10.92996       -0.19477       -2.44426
H          1.66431        0.53429       -3.04746
H          2.18992       -0.38787       -1.61866
H          2.41356       -1.06525       -3.25077
H          3.84756        1.45898       -2.17829
H          4.04851        0.77351       -3.80377
H          2.81276        0.64483        0.78649
H          4.26154        1.65883        0.53506
H          3.90011       -0.35392        2.84732
H          3.71984        1.40970        2.98956
H          5.31034        0.72153        2.60489
H          7.07293       -1.85339       -1.78811
H          5.82344       -2.56032       -0.76614
H          7.59164       -2.84062        0.69638
H          7.10924       -1.24682        1.22952
H          9.32608       -1.73195       -0.88544
H          9.64212       -1.75169        0.85695
H          8.73930        1.06750       -1.02771
H          8.33849        0.27561        3.06111
H          9.62387        1.30645        3.21634
H          7.03832        1.93681        0.71828
H          8.11654        3.14716        1.17229
H         11.61185        0.33918        0.87184
H         11.33485        1.70065       -0.23833
H         12.09197       -1.20228       -0.95916
H         12.98205       -0.13248       -3.06590
H         12.25047        1.49549       -2.56193
