61

C          3.69216        3.03291       -2.44940
C          2.87027        1.83582       -2.00886
O          3.71154        0.72887       -1.53851
P          4.23497        0.71971       -0.01544
O          3.33826        1.33088        0.98962
C          4.47970       -1.06995        0.26880
C          3.12072       -1.77227        0.39966
C          3.24916       -3.12728        1.09741
N          1.94437       -3.81539        1.20718
C          1.63534       -4.98032        0.63023
N          0.35836       -5.26301        0.93624
C         -0.18401       -4.25970        1.72833
C          0.83068       -3.34781        1.88995
C         -1.58724       -4.29317        2.23538
C         -2.64112       -4.57168        1.14394
C         -4.07108       -4.59382        1.69473
C         -5.10939       -4.98480        0.63653
C         -6.54235       -4.99635        1.18132
C         -7.54543       -5.46786        0.13979
O         -8.85309       -5.43847        0.75177
C         -9.87652       -5.87915       -0.04603
O         -9.71143       -6.26443       -1.18780
C        -11.16302       -5.81172        0.68913
C        -12.30702       -6.19473        0.11165
O          5.69352        1.37500        0.00411
C          6.68343        1.19324       -1.05214
C          8.06133        1.34708       -0.44343
H          3.02230        3.80381       -2.85553
H          4.40680        2.75760       -3.23623
H          4.23811        3.47751       -1.60655
H          2.30474        1.40568       -2.84502
H          2.17186        2.09999       -1.20193
H          5.04773       -1.12609        1.21088
H          5.09905       -1.51778       -0.52189
H          2.66597       -1.90729       -0.59311
H          2.44740       -1.12211        0.97946
H          3.64482       -3.01167        2.11690
H          3.91918       -3.80642        0.55300
H          2.29791       -5.58803        0.02504
H         -0.13971       -6.09048        0.61932
H          0.84529       -2.41188        2.43567
H         -1.79020       -3.32986        2.72497
H         -1.66306       -5.05992        3.02561
H         -2.43653       -5.54555        0.66325
H         -2.55348       -3.81202        0.35021
H         -4.31752       -3.60212        2.11008
H         -4.12701       -5.30154        2.53960
H         -4.85957       -5.98373        0.23798
H         -5.04359       -4.29026       -0.21858
H         -6.82373       -3.98756        1.52372
H         -6.60485       -5.65640        2.06176
H         -7.33109       -6.49262       -0.20326
H         -7.55013       -4.81970       -0.75140
H        -11.12582       -5.43885        1.71363
H        -12.31243       -6.56291       -0.91564
H        -13.25566       -6.15135        0.64547
H          6.49358        1.95522       -1.82136
H          6.55784        0.20402       -1.52050
H          8.16889        2.32990        0.03271
H          8.82547        1.25881       -1.22806
H          8.25123        0.57330        0.31197
