74

C         -0.26801        1.23713        3.93635
C          1.19740        0.86667        3.69314
C          2.06809        0.99192        4.94849
C          3.54046        0.63196        4.71851
C          4.39019        0.75317        5.98989
C          5.85438        0.30735        5.84991
C          6.68160        1.17654        4.89135
C          8.16253        0.75749        4.79427
C          8.95115        0.96703        6.10287
C          9.29154        2.45044        6.07915
N          9.59126        2.74610        4.60836
C          9.01314        1.55766        3.77354
C          8.31182        2.04233        2.51011
C          9.13589        2.81731        1.45436
C         10.25728        1.98538        0.78749
N          9.74879        0.88368       -0.03072
C          9.46635        1.21794       -1.44202
C          8.05791        0.77125       -1.84355
O          7.08119        1.21410       -0.88149
O          8.25705        3.41131        0.51822
C         11.04029        3.09047        4.33983
C         12.06808        2.02231        4.72832
O         13.27537        2.48874        4.18824
Si        14.80576        1.83997        4.56648
C         15.95619        2.69506        3.37228
C         15.20702        2.24363        6.35400
C         14.73974       -0.01856        4.29957
H         -0.86742        1.12713        3.02255
H         -0.36656        2.27911        4.27483
H         -0.71954        0.59575        4.70754
H          1.61276        1.50722        2.89660
H          1.25811       -0.16680        3.31209
H          1.65658        0.34520        5.74296
H          2.00133        2.02367        5.33674
H          3.94389        1.28118        3.92203
H          3.60818       -0.40108        4.33338
H          3.92509        0.14919        6.78548
H          4.36091        1.79587        6.35317
H          5.88908       -0.74029        5.50359
H          6.31093        0.31012        6.85267
H          6.58984        2.23511        5.19755
H          6.23496        1.12169        3.88885
H          8.20133       -0.30202        4.49825
H          9.86705        0.35837        6.11156
H          8.37881        0.70607        7.00006
H         10.15450        2.74271        6.68582
H          8.43520        3.07210        6.36719
H          9.05128        3.57562        4.33431
H          9.89366        0.95624        3.51190
H          7.44693        2.67226        2.76845
H          7.90637        1.13867        2.02647
H          9.63056        3.68230        1.93447
H         10.91501        1.56408        1.56590
H         10.87958        2.68740        0.20141
H         10.37398        0.08501        0.02613
H         10.20250        0.76123       -2.12506
H          9.54602        2.30730       -1.56667
H          8.00384       -0.32515       -1.94660
H          7.77357        1.21676       -2.80613
H          7.21950        0.64538       -0.10533
H          7.78359        2.70456        0.01379
H         11.25066        4.02355        4.87948
H         11.14026        3.29227        3.26802
H         11.79393        1.03524        4.30844
H         12.11835        1.90369        5.82777
H         15.93492        3.78442        3.51147
H         15.68478        2.47619        2.33076
H         16.99006        2.35631        3.52975
H         15.21089        3.32915        6.52433
H         16.20531        1.86261        6.61334
H         14.49610        1.78653        7.05738
H         14.43708       -0.26573        3.27234
H         14.04773       -0.51513        4.99488
H         15.73323       -0.45923        4.46592
