105

C          1.18261        0.54833       -0.14083
C          2.49820       -0.12001       -0.52890
C          2.41246       -1.66453       -0.59613
C          2.34853       -2.37094        0.76763
N          2.10828       -3.81650        0.55087
C          3.10070       -4.61183        0.82976
C          4.20678       -3.83667        1.46074
C          3.68168       -2.37752        1.58101
C          3.50797       -1.93100        3.04043
C          3.14696       -0.45334        3.16387
O          3.04428       -0.11817        4.53035
C          2.59803        1.22674        4.70405
C          2.54362        1.54825        6.19130
O          1.91498        2.82169        6.25671
C          1.83255        3.46436        7.47153
C          1.22267        4.72653        7.44017
C          1.09841        5.46578        8.60678
C          1.58072        4.99326        9.84396
C          2.16423        3.72227        9.84987
C          2.29630        2.95325        8.68484
C          1.46775        5.86860       11.09812
C          2.25763        7.21267       10.93986
C          3.77385        7.31708       10.58942
C          4.68747        6.56238       11.57407
C          4.09558        6.84634        9.15635
C          4.11176        8.82210       10.67968
C         -0.01989        6.26428       11.29049
C          1.87820        5.11397       12.37819
C          3.10636       -6.05023        0.46917
C          3.80461       -7.00328        1.46032
C          3.87385       -8.40312        0.84610
S          4.82832       -9.51080        1.91321
C          4.14783      -11.11828        1.42690
S          2.85016      -11.31501        0.41962
N          4.86545      -12.13520        1.98901
C          5.87821      -11.89716        2.99105
C          7.22570      -12.09466        2.66739
C          8.20254      -11.89427        3.64219
C          7.83558      -11.50373        4.93410
C          6.48804      -11.32034        5.25540
C          5.50292      -11.52150        4.28695
C          4.69391      -13.51148        1.58081
C          4.28649      -14.45729        2.52484
C          4.19136      -15.80088        2.15536
C          4.50528      -16.19473        0.85263
C          4.91666      -15.24154       -0.08486
C          5.01602      -13.89843        0.27542
O          2.99508        0.36646       -1.77519
H          0.81754        0.21726        0.84201
H          0.39702        0.32217       -0.87956
H          1.31240        1.63657       -0.09595
H          3.27822        0.16102        0.19814
H          3.29877       -2.02378       -1.14226
H          1.52875       -1.93878       -1.19837
H          1.51035       -1.98328        1.36657
H          1.25368       -4.15094        0.10138
H          5.11752       -3.93197        0.84730
H          4.46281       -4.27874        2.43734
H          4.39339       -1.70082        1.08722
H          4.44838       -2.10418        3.58575
H          2.73588       -2.54023        3.54032
H          2.18535       -0.23599        2.65310
H          3.92000        0.16941        2.66554
H          1.58879        1.35497        4.26813
H          3.27990        1.93085        4.19184
H          3.55926        1.57792        6.62209
H          1.95675        0.78178        6.72901
H          0.85730        5.11065        6.48729
H          0.63332        6.45026        8.54406
H          2.54459        3.30114       10.77961
H          2.75949        1.96898        8.74655
H          2.10863        7.75733       11.88860
H          1.72703        7.81068       10.17927
H          4.61213        5.47375       11.45164
H          4.45429        6.80847       12.62033
H          5.73824        6.83574       11.39573
H          3.96648        5.76431        9.03237
H          5.14118        7.08820        8.91244
H          3.45633        7.34679        8.41461
H          3.94409        9.21054       11.69512
H          3.49203        9.41243        9.98812
H          5.16562        9.00076       10.42065
H         -0.40490        6.85337       10.44758
H         -0.13919        6.87049       12.20023
H         -0.64754        5.36775       11.39137
H          2.90234        4.72706       12.35316
H          1.20115        4.26775       12.56523
H          1.80771        5.78988       13.24169
H          3.65539       -6.10258       -0.49335
H          2.08280       -6.39055        0.24576
H          3.25830       -7.03003        2.41499
H          4.81748       -6.62939        1.67617
H          4.34843       -8.36563       -0.14714
H          2.88024       -8.86634        0.71531
H          7.49584      -12.40482        1.65771
H          9.25328      -12.04506        3.39288
H          8.60155      -11.35206        5.69523
H          6.20110      -11.03326        6.26735
H          4.44679      -11.39437        4.52618
H          4.04729      -14.14217        3.54059
H          3.87094      -16.54019        2.88984
H          4.43271      -17.24440        0.56717
H          5.16880      -15.54655       -1.10091
H          5.33662      -13.14895       -0.44774
H          2.25267        0.46507       -2.39412
