65

C          5.53328        3.68480       -1.28877
C          4.57814        2.53195       -1.60883
C          5.26290        1.41533       -2.40917
C          4.30753        0.27429       -2.71208
O          5.03773       -0.80621       -3.41447
C          5.43752       -1.81994       -2.67587
O          5.18669       -2.10221       -1.53354
N          6.23193       -2.74836       -3.53656
C          5.80997       -2.94684       -4.81635
C          6.41882       -3.86266       -5.64381
C          7.52137       -4.59870       -5.17422
C          7.94987       -4.33765       -3.86241
C          7.30760       -3.43242       -3.02641
C          7.78433       -3.20043       -1.62464
C          8.06783       -1.70637       -1.33018
O          7.83209       -0.85932       -2.20162
N          8.53374       -1.39600       -0.09739
C          8.86154       -2.37728        0.94582
C         10.34021       -2.77224        0.96079
C          8.74022        0.02801        0.22832
C          7.54027        0.63903        0.95536
C          8.21327       -5.65069       -6.00087
C          7.95202       -5.61513       -7.50705
C          8.74143       -6.71066       -8.25757
N          8.13698       -6.85840       -9.57950
C          8.34229       -8.15300      -10.23964
C          7.67290       -8.14568      -11.60302
O          8.29444       -7.10458      -12.36901
O          6.56583       -5.82399       -7.75010
H          5.02739        4.46853       -0.71004
H          5.92447        4.14781       -2.20606
H          6.39394        3.33661       -0.69881
H          3.71009        2.91565       -2.16996
H          4.17503        2.11497       -0.67068
H          6.12510        1.01950       -1.85184
H          5.66226        1.81571       -3.35421
H          3.51746        0.55949       -3.41770
H          3.85978       -0.15485       -1.80662
H          4.96044       -2.34430       -5.12576
H          6.02399       -4.03510       -6.64428
H          8.81741       -4.86280       -3.46147
H          8.68491       -3.80956       -1.47389
H          7.02124       -3.55566       -0.91584
H          8.22241       -3.26169        0.82924
H          8.57646       -1.93153        1.90966
H         10.63900       -3.25017        0.01763
H         10.53500       -3.47837        1.77871
H         10.98677       -1.89755        1.11269
H          8.93086        0.55438       -0.71382
H          9.64790        0.10132        0.84405
H          6.63478        0.57606        0.33803
H          7.73484        1.69785        1.17337
H          7.33746        0.13506        1.91035
H          7.87824       -6.63356       -5.61982
H          9.29751       -5.60128       -5.80720
H          8.26272       -4.62246       -7.90062
H          8.61483       -7.66615       -7.72234
H          9.82331       -6.47723       -8.27330
H          8.45596       -6.12445      -10.21644
H          7.89092       -8.94329       -9.62042
H          9.41563       -8.39586      -10.36630
H          6.59082       -7.95480      -11.48667
H          7.80829       -9.13093      -12.08204
H          7.85463       -7.04300      -13.23000
H          6.57828       -6.24916       -8.64905
