116

C          0.72624       -0.01153        0.01063
C          2.25533       -0.08179        0.02490
C          2.84490       -0.72059       -1.23721
C          4.37581       -0.77191       -1.24836
C          4.95687       -1.44617       -2.49561
C          6.48804       -1.45072       -2.53161
C          7.07444       -2.17891       -3.74471
C          8.60275       -2.10847       -3.82147
C          9.19140       -2.91708       -4.98142
C         10.71483       -2.80533       -5.09402
C         11.29961       -3.64712       -6.23209
C         12.81729       -3.49364       -6.37489
C         13.39288       -4.37150       -7.49623
C         14.89159       -4.14604       -7.64060
N         15.50244       -4.89305       -8.81826
C         16.96365       -4.54787       -9.09996
C         17.15754       -3.04467       -9.35076
O         18.50444       -2.90195       -9.72145
C         18.90773       -1.53211       -9.92705
C         20.39859       -1.50997      -10.21301
C         20.92472       -0.09230      -10.46737
C         22.43817       -0.04642      -10.70495
C         22.96318        1.36660      -10.97596
C         24.47932        1.43359      -11.18832
C         24.98644        2.85162      -11.46857
C         26.50159        2.94333      -11.67766
C         26.98481        4.36838      -11.96600
C         28.49495        4.48106      -12.19596
C         28.96112        5.90836      -12.50582
C         30.46992        6.01767      -12.73942
C         17.43362       -5.36153      -10.31334
O         17.27119       -6.75819      -10.13005
C         15.91064       -7.08815       -9.95217
C         15.30940       -6.43140       -8.70172
C         15.79509       -6.94045       -7.39693
N         15.04062       -7.34191       -6.41526
N         15.88028       -7.74314       -5.39300
C         17.10714       -7.55062       -5.82704
O         17.13658       -7.03823       -7.10872
S         18.56046       -7.87239       -4.95427
C         19.84850       -7.24195       -6.09934
C         21.20457       -7.37403       -5.40237
C         22.34756       -6.83482       -6.27541
C         23.71070       -6.93263       -5.58593
H          0.33401        0.45035        0.92714
H          0.28104       -1.01443       -0.07233
H          0.36209        0.58122       -0.84195
H          2.59095       -0.64990        0.90917
H          2.66988        0.93369        0.14502
H          2.49325       -0.16437       -2.12436
H          2.44397       -1.74402       -1.34689
H          4.73126       -1.30478       -0.34866
H          4.77580        0.25440       -1.16767
H          4.57350       -0.93854       -3.39843
H          4.58559       -2.48468       -2.55420
H          6.87449       -1.91710       -1.60808
H          6.85444       -0.40887       -2.51780
H          6.64463       -1.75653       -4.67019
H          6.75791       -3.23665       -3.72168
H          9.03488       -2.46867       -2.87138
H          8.91457       -1.05327       -3.91375
H          8.73135       -2.58617       -5.92923
H          8.91047       -3.97840       -4.86416
H         11.17737       -3.11221       -4.13974
H         10.99374       -1.74683       -5.24002
H         10.81362       -3.36711       -7.18321
H         11.05500       -4.71033       -6.06500
H         13.30575       -3.76183       -5.42284
H         13.06478       -2.43466       -6.56487
H         12.88591       -4.13103       -8.44828
H         13.17622       -5.42342       -7.25937
H         15.44429       -4.46801       -6.74781
H         15.10216       -3.08381       -7.81177
H         14.96441       -4.61436       -9.65497
H         17.52394       -4.85715       -8.20737
H         16.93757       -2.45045       -8.44402
H         16.46966       -2.69569      -10.15477
H         18.66817       -0.94437       -9.02021
H         18.33100       -1.10601      -10.76980
H         20.60376       -2.14997      -11.08651
H         20.92894       -1.96053       -9.35835
H         20.67395        0.55417       -9.60833
H         20.40512        0.34339      -11.33813
H         22.69571       -0.70307      -11.55429
H         22.95747       -0.46913       -9.82700
H         22.68517        2.02579      -10.13465
H         22.45271        1.78023      -11.86348
H         24.76168        0.77098      -12.02538
H         24.99167        1.02963      -10.29733
H         24.69477        3.51301      -10.63356
H         24.47259        3.25079      -12.36084
H         26.79679        2.28133      -12.51086
H         27.01984        2.55282      -10.78410
H         26.69329        5.02739      -11.12906
H         26.45336        4.75726      -12.85270
H         28.78940        3.81441      -13.02598
H         29.03130        4.10748      -11.30561
H         28.66711        6.57350      -11.67605
H         28.42229        6.27972      -13.39411
H         31.03592        5.68791      -11.85525
H         30.77119        7.05115      -12.95908
H         30.78930        5.39184      -13.58627
H         18.50054       -5.17152      -10.46471
H         16.89250       -5.02408      -11.22327
H         15.84248       -8.17833       -9.84729
H         15.31488       -6.79046      -10.84024
H         14.22397       -6.59321       -8.69667
H         19.62578       -6.19019       -6.32839
H         19.81323       -7.82608       -7.02907
H         21.39391       -8.43160       -5.15601
H         21.18222       -6.82747       -4.44520
H         22.13933       -5.78318       -6.53586
H         22.37157       -7.38894       -7.22854
H         23.72539       -6.36219       -4.64575
H         24.50834       -6.53671       -6.22804
H         23.96365       -7.97537       -5.34594
