52

C          6.42776        3.00990        0.76804
C          5.97576        1.55968        0.57778
C          6.54184        0.92299       -0.69692
C          6.09998       -0.53453       -0.86613
N          6.57007       -1.13268       -2.12429
C          7.74317       -1.79452       -2.22129
O          8.49515       -2.07182       -1.29683
C          8.09569       -2.22975       -3.68060
N          9.41210       -2.85921       -3.69561
N         10.46108       -2.07319       -3.79567
N         11.53159       -2.76735       -3.51130
C         11.15043       -4.02543       -3.20268
N          9.79584       -4.11616       -3.29607
C          8.82965       -5.32139       -3.31894
C          8.34675       -5.49035       -4.78164
C          9.42744       -5.66663       -5.88376
C          9.54560       -7.12554       -6.35051
C          9.13989       -4.73060       -7.06647
C          9.56666       -6.60008       -2.87595
O          9.88687       -6.52979       -1.49380
C          7.66860       -5.08324       -2.34113
C         12.16397       -5.03954       -2.82845
H          6.01054        3.43678        1.68922
H          6.10246        3.64485       -0.06894
H          7.52287        3.08200        0.83533
H          4.87397        1.51665        0.54913
H          6.28204        0.95972        1.45076
H          7.64332        0.95932       -0.67899
H          6.22068        1.50789       -1.57629
H          5.00350       -0.61809       -0.85296
H          6.49433       -1.15636       -0.05186
H          6.08060       -0.87390       -2.97647
H          8.21498       -1.35136       -4.32827
H          7.34350       -2.89081       -4.11976
H          7.70709       -4.63265       -5.03377
H          7.66426       -6.35379       -4.77622
H         10.40730       -5.36846       -5.47082
H          8.60530       -7.46541       -6.80954
H          9.77981       -7.81449       -5.52710
H         10.33818       -7.23245       -7.10292
H          8.16761       -4.96328       -7.52683
H          9.90658       -4.82927       -7.84610
H          9.12110       -3.67595       -6.75268
H         10.45738       -6.79088       -3.49496
H          8.85213       -7.41335       -3.08183
H         10.01647       -7.42734       -1.15092
H          6.91573       -4.39179       -2.73350
H          8.02694       -4.71886       -1.37375
H          7.16389       -6.04341       -2.17581
H         13.08943       -4.49424       -2.61504
H         12.36347       -5.72985       -3.66015
H         11.84936       -5.61578       -1.95084
