57

C          1.35311       -1.72545        0.59413
O          2.77649       -1.84210        0.44262
C          3.22707       -1.29183       -0.75629
N          4.69465       -1.27929       -0.73092
C          5.47810       -0.15774       -0.62956
N          6.74852       -0.45994       -0.68086
N          6.77113       -1.81967       -0.79789
C          5.53469       -2.34549       -0.82818
C          5.12537       -3.77576       -0.90213
C          5.61290       -4.60398        0.30355
O          5.10164       -4.02058        1.51943
C          6.00977       -3.38267        2.32071
O          7.19370       -3.28397        2.06571
C          5.32106       -2.76636        3.51008
S          4.94206       -1.00730        3.14181
C          5.11395       -6.04508        0.20747
O          5.49346       -6.80612        1.36329
C          6.82506       -7.09441        1.48490
O          7.65435       -6.81244        0.64377
C          7.11068       -7.75436        2.81127
S          7.19243       -6.49481        4.14230
C          8.07005       -2.47470       -0.93669
C          8.22557       -3.13887       -2.31245
O          7.29290       -3.35345       -3.06370
O          9.50161       -3.45465       -2.50459
C          9.82762       -4.18494       -3.74602
C         10.02629       -3.24560       -4.92486
C         10.40307       -4.02446       -6.19483
C         10.55428       -3.11863       -7.41914
H          1.11299       -2.18606        1.55692
H          0.81752       -2.25572       -0.21074
H          1.04392       -0.66722        0.60610
H          2.90832       -0.24177       -0.89133
H          2.89952       -1.86977       -1.64207
H          5.08397        0.84794       -0.52762
H          5.53331       -4.20144       -1.83076
H          4.02928       -3.81722       -0.95023
H          6.70735       -4.61333        0.35805
H          5.96307       -2.83380        4.39403
H          4.36060       -3.25334        3.70833
H          6.20051       -0.54834        3.33741
H          5.51828       -6.50753       -0.70557
H          4.01715       -6.08610        0.19444
H          8.05113       -8.31108        2.75269
H          6.29365       -8.42545        3.10175
H          8.32081       -5.89104        3.69779
H          8.19570       -3.21263       -0.13080
H          8.82325       -1.69313       -0.79213
H          9.02182       -4.90761       -3.93217
H         10.74868       -4.72006       -3.48545
H         10.81382       -2.51462       -4.68210
H          9.09844       -2.68037       -5.10377
H          9.63165       -4.78650       -6.39527
H         11.34156       -4.57681       -6.02357
H          9.62096       -2.57825       -7.63421
H         10.81260       -3.70267       -8.31211
H         11.34650       -2.37086       -7.27062
