60

C         10.94779       -2.32391        4.98596
C         10.17201       -1.92022        3.72970
C         10.56011       -0.53757        3.19239
C          9.79619       -0.13576        1.92620
C         10.14500        1.26711        1.41551
C          9.38643        1.65559        0.14142
C          9.68822        3.07862       -0.34496
C          8.90708        3.46061       -1.61005
C          9.02554        4.92969       -2.04645
C         10.44594        5.42889       -2.32558
N         11.11396        4.54344       -3.38718
C         10.79460        5.16581       -4.71908
C         10.87019        6.69216       -4.46915
C         10.51432        6.83663       -2.94527
C          9.82747        7.40181       -5.37006
C          9.63587        8.91185       -5.12996
C          8.20436        9.36914       -5.42520
C          7.18609        8.80241       -4.44004
O          7.46380        8.07816       -3.50494
O          5.89233        9.14406       -4.65036
C         12.32492        7.19261       -4.68349
C         12.95219        7.26846       -6.10582
F         12.81822        6.06394       -6.74899
F         12.32826        8.21904       -6.85205
F         12.48871        8.43632       -4.14618
F         13.18463        6.34238       -3.96582
H         10.64135       -3.31574        5.34499
H         10.78241       -1.60925        5.80586
H         12.03040       -2.36109        4.79363
H          9.08999       -1.93337        3.94418
H         10.33135       -2.67409        2.94003
H         11.64535       -0.51703        2.98808
H         10.38751        0.21834        3.97888
H          8.71116       -0.18902        2.12303
H          9.99463       -0.87510        1.13031
H         11.23220        1.33080        1.23117
H          9.92875        2.00589        2.20687
H          8.30142        1.56252        0.31961
H          9.62272        0.93390       -0.66064
H         10.77750        3.17283       -0.51157
H          9.44657        3.79836        0.45596
H          7.83783        3.25298       -1.45093
H          9.18333        2.77720       -2.44022
H          8.63157        5.58489       -1.25414
H          8.38375        5.12577       -2.92065
H         11.06892        5.33860       -1.42680
H         10.77796        3.57294       -3.31117
H         12.13275        4.54766       -3.25094
H          9.76875        4.87697       -4.97609
H         11.47698        4.77763       -5.48037
H          9.53808        7.32909       -2.84976
H         11.25218        7.45651       -2.42588
H          8.87840        6.89045       -5.15535
H         10.05320        7.21361       -6.43011
H         10.33366        9.48769       -5.75060
H          9.86391        9.16863       -4.08667
H          7.89684        9.09188       -6.44826
H          8.14351       10.46885       -5.38044
H          5.80881        9.73704       -5.41883
H         14.02297        7.51334       -6.02419
