71

C          7.72152       -2.71064       -2.78419
C          6.71296       -2.71345       -1.63265
C          6.31890       -1.29801       -1.18709
C          5.19279       -1.22082       -0.14251
C          5.42537       -1.99598        1.17420
P          6.99394       -1.61797        2.01080
C          7.14115        0.15319        2.40153
C          8.58257        0.55840        2.77192
O          9.38557        0.01679        1.72366
C         10.79786        0.04577        1.94555
C         11.51205       -0.71035        0.84927
C         10.83405       -1.29635       -0.22535
C         11.54037       -1.98887       -1.21401
C         12.92915       -2.09588       -1.14356
C         13.61355       -1.50187       -0.07859
C         12.91007       -0.81646        0.91119
C          8.70095        2.07524        2.91056
C          7.24311       -2.64129        3.49177
C          7.11202       -4.15965        3.24747
C          7.96847       -4.75338        2.10923
C          9.47535       -4.51541        2.32273
C         10.36582       -4.90787        1.12874
C         11.80831       -4.57446        1.37329
C         12.84725       -5.42326        1.48017
C         12.75056       -6.92199        1.36604
C         14.23714       -4.89608        1.72696
C          7.62532       -6.24075        1.94786
H          8.01432       -3.73193       -3.06085
H          8.63613       -2.16206       -2.51547
H          7.30225       -2.23042       -3.67956
H          7.14037       -3.28209       -0.78766
H          5.80649       -3.26439       -1.93460
H          5.98497       -0.72773       -2.06809
H          7.21638       -0.76076       -0.82895
H          4.26453       -1.62341       -0.57654
H          4.97871       -0.16642        0.08917
H          5.44249       -3.08257        0.99847
H          4.61606       -1.80423        1.89546
H          8.03472       -1.91431        1.11303
H          6.43388        0.39092        3.20930
H          6.82406        0.70415        1.50249
H          8.86747        0.08250        3.73292
H         11.02425       -0.40796        2.93094
H         11.16024        1.08893        1.97217
H          9.75122       -1.19791       -0.29980
H         11.00129       -2.44602       -2.04487
H         13.47843       -2.63769       -1.91366
H         14.69970       -1.57630       -0.01759
H         13.45362       -0.35846        1.74104
H          8.48471        2.56711        1.95207
H          9.70911        2.36528        3.23113
H          7.99810        2.45134        3.66641
H          6.51215       -2.29839        4.24055
H          8.24082       -2.37440        3.87228
H          6.05271       -4.40246        3.06894
H          7.37435       -4.65710        4.19514
H          7.68461       -4.25500        1.15989
H          9.80540       -5.06867        3.21865
H          9.66953       -3.45008        2.54129
H         10.01382       -4.35855        0.23533
H         10.24326       -5.97561        0.90261
H         12.02097       -3.50681        1.48455
H         11.73062       -7.28592        1.19597
H         13.13058       -7.40180        2.28234
H         13.38217       -7.29138        0.54214
H         14.25072       -3.80097        1.79197
H         14.92267       -5.20179        0.91926
H         14.65820       -5.30608        2.65948
H          7.92187       -6.81046        2.84164
H          8.13867       -6.68333        1.08573
H          6.54622       -6.38916        1.79969
