30

C          0.67930       -0.05337        0.73925
C          1.97403       -0.08628        0.41626
C          3.05756       -0.23490        1.44482
C          4.02455        0.97938        1.50218
N          5.25736        0.34920        2.04515
C          5.26613       -0.93654        2.00182
C          4.02353       -1.47926        1.37198
C          4.30145       -2.04103       -0.05590
C          5.39920       -3.13268       -0.13453
F          6.59997       -2.57109        0.22564
F          5.10751       -4.12043        0.75525
F          3.15336       -2.58169       -0.54180
F          4.68062       -1.01898       -0.89354
C          3.53720        2.15253        2.36778
C          4.47783        3.31975        2.38309
C          4.41589        4.44442        1.66302
Br         3.03937        4.78991        0.42178
Br         5.98165        3.14524        3.57985
H         -0.08974        0.08365       -0.02006
H          0.33807       -0.16789        1.77056
H          2.28214        0.03500       -0.62505
H          2.57623       -0.30817        2.43472
H          4.27199        1.35298        0.49505
H          6.00050        0.93227        2.46668
H          6.10833       -1.51043        2.39066
H          3.63937       -2.33338        1.94937
H          5.48172       -3.54846       -1.15049
H          3.33614        1.80619        3.39292
H          2.57979        2.48051        1.93410
H          5.14700        5.24676        1.73390
