46

C          1.21974       -0.69707       -0.29918
O          2.63177       -0.56982       -0.55456
C          2.89807       -0.09076       -1.82999
N          4.36382        0.06202       -1.91802
N          5.13163       -0.93002       -2.32672
N          6.38583       -0.56787       -2.18287
C          6.39353        0.67622       -1.66501
N          5.12318        1.09809       -1.48353
C          4.59215        2.41558       -0.98922
C          3.64590        2.32595        0.18019
C          2.35075        2.83409        0.00439
C          1.43328        2.83188        1.05428
C          1.81228        2.30213        2.28867
C          3.10453        1.80541        2.46857
C          4.04952        1.81415        1.43387
C          5.43912        1.28804        1.68837
C          7.63214        1.48406       -1.35527
O          7.58244        2.65334       -1.02273
O          8.69599        0.71863       -1.50882
C         10.01337        1.35077       -1.26841
C         11.06946        0.27969       -1.43923
C         12.48581        0.84963       -1.26792
C         13.56851       -0.21947       -1.43435
H          1.13892       -1.03896        0.73679
H          0.76423       -1.44042       -0.97269
H          0.71308        0.27462       -0.40612
H          2.43439        0.88957       -2.04139
H          2.65315       -0.80549       -2.63632
H          4.10653        2.88474       -1.85644
H          5.51256        2.97491       -0.77210
H          2.06459        3.25906       -0.96106
H          0.43569        3.24676        0.91041
H          1.10687        2.29070        3.11999
H          3.39791        1.41189        3.44335
H          5.61366        1.16681        2.76346
H          6.21622        1.96558        1.30547
H          5.59406        0.29783        1.22975
H          9.99456        1.78112       -0.25684
H         10.11583        2.17116       -1.99379
H         10.96708       -0.17268       -2.43827
H         10.89610       -0.52370       -0.70579
H         12.57780        1.31742       -0.27374
H         12.64722        1.65631       -2.00195
H         13.45756       -1.02141       -0.69029
H         14.56998        0.21229       -1.31028
H         13.52610       -0.68108       -2.43135
