83

Br         1.32848       -0.21001        0.83391
C          3.21325       -0.54582        0.43053
C          3.51647       -0.24656       -1.03306
C          4.98548       -0.56391       -1.36804
C          5.43581       -0.27798       -2.80339
N          4.65099       -1.15747       -3.78445
C          5.05073       -1.00340       -5.25832
C          6.37842       -1.72605       -5.48328
C          6.78672       -1.81486       -6.95448
O          8.06528       -2.41952       -6.95028
C          8.67305       -2.50265       -8.22693
C         10.15363       -2.81048       -8.01339
F         10.76938       -1.82591       -7.31357
F         10.33705       -3.96829       -7.33965
F         10.76791       -2.91756       -9.21539
C          4.99571        0.51258       -5.57595
N          5.71547        1.37183       -4.66175
C          5.28076        1.17397       -3.29149
C          7.15885        1.57136       -4.87469
C          7.64631        2.92556       -4.35933
C          9.15863        3.11192       -4.52014
C          9.66735        4.39635       -3.85906
C         11.18655        4.57212       -3.93399
C         11.69336        5.75530       -3.10348
C         13.21486        5.92258       -3.13494
C         13.72853        7.00183       -2.17697
C         15.25152        7.15840       -2.19672
C         15.78273        8.14760       -1.15455
C         17.30756        8.27666       -1.17617
C         17.84291        9.23824       -0.10703
N         19.29281        9.36146       -0.12571
C         20.01070       10.20298       -0.94812
C         21.35678        9.93866       -0.76852
C         21.45823        8.89342        0.19091
C         20.17023        8.55400        0.56503
H          3.39417       -1.59571        0.68860
H          3.78725        0.09688        1.10774
H          3.28645        0.80960       -1.23461
H          2.82393       -0.84398       -1.65206
H          5.20507       -1.61839       -1.12473
H          5.64845        0.02753       -0.71676
H          6.48264       -0.59255       -2.91578
H          3.65159       -0.92305       -3.68509
H          4.74758       -2.14455       -3.50806
H          4.24922       -1.51534       -5.81658
H          6.31316       -2.75663       -5.09391
H          7.20080       -1.23346       -4.94740
H          6.83978       -0.81060       -7.41855
H          6.05785       -2.41439       -7.53569
H          8.60613       -1.54694       -8.77675
H          8.23447       -3.30585       -8.84489
H          3.93099        0.81423       -5.57585
H          5.35868        0.67153       -6.59959
H          4.22307        1.48297       -3.20605
H          5.85000        1.82697       -2.61747
H          7.33393        1.50594       -5.95940
H          7.77876        0.77044       -4.41650
H          7.39838        3.03120       -3.28907
H          7.09641        3.72431       -4.88074
H          9.42427        3.10935       -5.59118
H          9.68327        2.24764       -4.07547
H          9.36015        4.39394       -2.79783
H          9.16930        5.26988       -4.31370
H         11.49646        4.69195       -4.98638
H         11.67638        3.64860       -3.57778
H         11.36675        5.62086       -2.05675
H         11.21171        6.68580       -3.45120
H         13.53959        6.15437       -4.16420
H         13.69072        4.95935       -2.87896
H         13.40231        6.75489       -1.15100
H         13.25417        7.96885       -2.41919
H         15.57554        7.47567       -3.20300
H         15.71934        6.17268       -2.02735
H         15.45349        7.82611       -0.15037
H         15.32355        9.13833       -1.31989
H         17.64320        8.62479       -2.16649
H         17.77069        7.28799       -1.02386
H         17.54443        8.89902        0.89682
H         17.41188       10.24215       -0.24417
H         19.50391       10.92199       -1.58398
H         22.17535       10.45321       -1.26173
H         22.36923        8.44818        0.57777
H         19.80377        7.81378        1.26936
