54

C          5.65523       -1.02026        1.24644
C          4.48896       -2.00168        1.18599
C          3.52737       -1.63328        0.04677
N          2.41204       -2.58351       -0.11390
C          1.32008       -2.51774        0.67085
N          0.35819       -3.46393        0.57960
N          1.14736       -1.51304        1.54337
C         -0.00162       -1.35506        2.44699
C          0.25200       -0.24002        3.46023
C          0.43668        1.15177        2.84492
N          0.46478        2.16232        3.88332
C          0.59000        3.53782        3.36680
C          0.68193        4.54306        4.48611
C         -0.43665        5.27255        4.90630
C         -0.35418        6.21432        5.93309
C          0.87320        6.43984        6.56048
C          2.00239        5.72017        6.16833
C          1.90405        4.77418        5.14371
O          2.99124        4.02469        4.73954
C          2.55566       -3.63877       -1.13324
C          1.72468       -3.43196       -2.41056
C          2.08962       -2.18792       -3.20756
F          3.42626       -2.12023       -3.45582
F          1.44703       -2.16566       -4.39249
F          1.75382       -1.04179       -2.54166
O          4.90554       -3.34261        0.90127
H          5.30837        0.00311        1.45008
H          6.21564       -1.02005        0.30111
H          6.34620       -1.29639        2.05476
H          3.94108       -1.98438        2.14863
H          4.08047       -1.63484       -0.90031
H          3.14836       -0.60656        0.16373
H          0.55253       -4.35466        0.14296
H         -0.43648       -3.42833        1.20420
H          1.76887       -0.71339        1.47420
H         -0.15846       -2.30219        2.98796
H         -0.91190       -1.13415        1.86165
H          1.12446       -0.50367        4.08142
H         -0.61241       -0.20208        4.13843
H         -0.41284        1.37345        2.17516
H          1.34913        1.17824        2.19110
H          1.23113        1.98471        4.53633
H         -0.30709        3.74936        2.76457
H          1.46765        3.64795        2.69673
H         -1.39138        5.09557        4.40665
H         -1.23889        6.77232        6.23824
H          0.95681        7.17696        7.35952
H          2.96421        5.89126        6.65921
H          3.77171        4.32886        5.23036
H          2.32672       -4.62226       -0.69446
H          3.62247       -3.68769       -1.37334
H          0.64669       -3.37568       -2.20595
H          1.88792       -4.29589       -3.07054
H          5.60258       -3.59403        1.52755
