57

F          2.77031       -0.21130       -1.62654
C          2.22869        0.93852       -1.04781
C          2.76336        1.10563        0.37002
N          4.22265        1.32017        0.41561
C          4.76548        2.50893        0.48543
S          6.44765        2.62459        0.41938
C          6.61180        0.78645        0.14049
C          5.19088        0.17872        0.34695
C          5.09633       -0.69902        1.60128
C          5.91162       -1.98693        1.45482
O          5.80401       -2.68640        2.67068
C          6.60308       -3.87549        2.69424
C          6.42082       -4.54414        4.05006
O          7.28917       -5.65974        4.06352
C          7.21416       -6.41170        5.27349
C          8.21071       -7.55739        5.16355
O          8.12709       -8.30769        6.36112
C          9.01507       -9.41684        6.36612
C          7.26137        0.48873       -1.21225
C          8.72188        0.95375       -1.29850
C          9.47062        0.44296       -2.53954
C          9.02457        1.09960       -3.84992
S          9.87196        0.31190       -5.23553
O         11.28957        0.59411       -5.15468
O          9.36824       -1.03408       -5.34545
O          9.26211        1.15936       -6.48108
H          1.13433        0.82867       -1.00898
H          2.48963        1.79519       -1.68852
H          2.53215        0.21479        0.96799
H          2.27189        1.96762        0.84215
H          4.14466        3.40217        0.58291
H          7.27356        0.44573        0.94967
H          4.91206       -0.40721       -0.54321
H          4.05289       -0.98684        1.79438
H          5.45026       -0.13929        2.48135
H          6.97693       -1.76346        1.23148
H          5.52388       -2.58996        0.60707
H          7.66944       -3.62297        2.54534
H          6.29588       -4.56309        1.88557
H          5.36598       -4.85273        4.18569
H          6.67037       -3.82947        4.85893
H          6.19342       -6.81071        5.42237
H          7.46303       -5.77586        6.14376
H          9.23239       -7.15470        5.01594
H          7.96671       -8.18372        4.28276
H          8.87708       -9.93426        7.32282
H         10.06806       -9.09173        6.27818
H          8.79123      -10.11660        5.54001
H          6.64799        0.91519       -2.02206
H          7.22606       -0.60747       -1.34065
H          9.25808        0.58762       -0.40768
H          8.77415        2.05594       -1.25937
H          9.34464       -0.64824       -2.61761
H         10.54588        0.62604       -2.40542
H          9.27808        2.16822       -3.88565
H          7.95330        0.97321       -4.05941
H          9.99969        1.66887       -6.86975
