46

O          1.35039       -0.91485        0.19884
C          2.74903       -0.72919        0.38418
C          2.89467        0.31737        1.48073
O          4.30230        0.49857        1.70274
C          4.60122        1.49306        2.65164
C          6.13292        1.46180        2.74905
S          6.77932        2.99199        3.47197
C          6.53992        2.76448        5.26699
C          6.97419        3.99678        6.07734
C          6.67957        5.36065        5.43237
C          5.27318        5.47795        4.84483
O          4.36879        4.72285        5.14638
O          5.07760        6.46392        3.95242
C          8.58861        2.84891        3.22951
C          8.99615        3.21472        1.79584
C          8.62378        4.63916        1.34651
C          9.51047        5.73482        1.96157
S          8.64689        7.31861        1.92971
O          8.29863        7.66371        0.57335
O          7.63848        7.27217        2.97306
O          9.78138        8.32563        2.47096
H          1.21260       -1.56296       -0.50781
H          3.24348       -0.36575       -0.53495
H          3.25196       -1.66098        0.70039
H          2.39759       -0.02537        2.40552
H          2.42973        1.26883        1.16650
H          4.13340        1.27947        3.63190
H          4.25058        2.49350        2.32645
H          6.54087        1.43538        1.72775
H          6.51249        0.59815        3.31177
H          7.05779        1.84479        5.57172
H          5.45177        2.63203        5.34064
H          8.04724        3.93803        6.30901
H          6.44422        3.91408        7.03711
H          7.41923        5.61341        4.65677
H          6.78916        6.14940        6.19318
H          5.91775        6.91577        3.71564
H          8.89207        1.83007        3.50625
H          9.00788        3.54474        3.97101
H          8.55790        2.49160        1.09185
H         10.08476        3.06011        1.72928
H          7.56627        4.83657        1.58400
H          8.69778        4.69960        0.25347
H         10.44864        5.86466        1.40639
H          9.75453        5.56681        3.02050
H         10.08536        8.87675        1.72193
