54

Br         2.93532        0.28443       -1.53449
C          2.41142        0.27591        0.36283
C          3.33252        1.13073        1.22112
C          4.78345        0.65066        1.20214
N          5.58392        1.47247        2.12181
C          6.89595        1.38807        2.36697
N          7.53940        2.13880        3.31529
C          6.89375        3.14357        4.17388
C          7.90233        4.07358        4.86986
C          7.18855        5.16816        5.58518
C          7.15018        5.36163        6.90951
F          7.76133        4.56022        7.77574
F          6.52118        6.35469        7.50155
F          6.51934        6.04026        4.78481
C          8.86052        1.73304        3.29597
N          9.07113        0.80359        2.41346
N          7.83682        0.56443        1.84109
C          7.82926       -0.18561        0.59324
C          7.86544        0.77893       -0.60661
O          7.66077        1.97158       -0.49523
O          8.12098        0.09381       -1.71573
C          8.24317        0.86033       -2.97405
C          9.68384        1.28429       -3.21224
C         10.67736        0.12042       -3.30688
C         12.11432        0.57071       -3.58914
C         13.11255       -0.59174       -3.64312
C         14.54691       -0.14701       -3.93768
H          2.41407       -0.77791        0.66363
H          1.38608        0.65573        0.38349
H          2.94183        1.09335        2.25387
H          3.28639        2.17860        0.88478
H          5.17509        0.73825        0.17963
H          4.83533       -0.40431        1.51636
H          5.08088        2.18465        2.64139
H          6.27373        2.62783        4.92388
H          6.23813        3.75588        3.53491
H          8.57679        4.51987        4.11941
H          8.51408        3.52118        5.59566
H          9.62841        2.14171        3.94262
H          6.95369       -0.84203        0.52842
H          8.72319       -0.81910        0.60628
H          7.56194        1.71817       -2.91619
H          7.89155        0.15148       -3.73387
H          9.99001        1.99317       -2.42563
H          9.68660        1.85989       -4.15358
H         10.34867       -0.57558       -4.09815
H         10.65738       -0.45830       -2.36820
H         12.43325        1.28951       -2.81357
H         12.14495        1.12463       -4.54362
H         12.78556       -1.31435       -4.40970
H         13.08424       -1.13685       -2.68407
H         14.61623        0.36335       -4.90949
H         15.23439       -1.00312       -3.96387
H         14.91561        0.55094       -3.17122
