77

C         12.29580       -0.05546       -9.19640
C         11.68905       -1.29810       -8.54196
C         10.15839       -1.26497       -8.45569
C          9.58574       -2.46718       -7.70070
C          8.07706       -2.37747       -7.44464
C          7.47601       -3.60241       -6.75483
O          8.32003       -4.14315       -5.67322
C          8.59382       -3.37669       -4.61930
O          8.11687       -2.28253       -4.36451
C          9.70824       -4.00698       -3.77650
N         11.02430       -3.72986       -4.37496
C         11.55837       -2.51239       -4.20481
N         12.79972       -2.15271       -4.62020
C         13.13910       -0.83594       -4.04654
C         11.73904       -0.24354       -3.76866
N         10.94332       -1.48005       -3.60307
C         11.23109        0.65455       -4.91821
C          9.70855        0.75563       -5.01634
O          9.15844        0.79633       -3.70657
C          7.72895        0.96107       -3.70483
C          7.24683        0.75510       -2.28208
O          7.74578        1.73434       -1.37759
C         11.58217       -4.66420       -5.38303
C         12.45135       -5.80067       -4.82883
C         11.72453       -6.91895       -4.05504
C         10.48066       -7.51176       -4.74234
C         10.67937       -7.96985       -6.19360
C          9.33490       -8.23687       -6.87400
O          9.45863       -8.26101       -8.31820
C          9.46107       -7.04629       -8.92997
O          9.37069       -5.98382       -8.32801
C          9.58621       -7.20711      -10.39724
C          9.62405       -6.14466      -11.20935
H         13.39147       -0.11712       -9.24509
H         12.03732        0.85850       -8.63968
H         11.92721        0.07461      -10.22410
H         12.10063       -1.41910       -7.52239
H         12.00165       -2.19997       -9.09492
H          9.73167       -1.21934       -9.47166
H          9.84096       -0.33050       -7.95927
H         10.10822       -2.52941       -6.73147
H          9.82166       -3.40344       -8.23163
H          7.53941       -2.27687       -8.40179
H          7.84945       -1.47002       -6.86639
H          7.41698       -4.45697       -7.43717
H          6.48478       -3.38601       -6.33458
H          9.58487       -5.09173       -3.71694
H          9.67411       -3.59009       -2.76256
H         13.51934       -2.85598       -4.74813
H         13.71446       -0.23331       -4.75931
H         13.72368       -0.95862       -3.12143
H         11.72185        0.31382       -2.82554
H          9.92077       -1.40915       -3.55866
H         11.60810        0.28341       -5.88383
H         11.67292        1.64964       -4.76082
H          9.29534       -0.11526       -5.55979
H          9.43120        1.65729       -5.59256
H          7.26492        0.21256       -4.37136
H          7.47671        1.97535       -4.06214
H          7.51319       -0.26852       -1.95567
H          6.15105        0.83870       -2.25732
H          8.71364        1.73038       -1.44811
H         12.15587       -4.05985       -6.09861
H         10.72665       -5.05422       -5.95232
H         13.24749       -5.38505       -4.18960
H         12.96796       -6.23451       -5.69936
H         11.43503       -6.55476       -3.05584
H         12.45725       -7.71922       -3.86954
H          9.66000       -6.77384       -4.73992
H         10.11453       -8.34974       -4.12929
H         11.32001       -8.86309       -6.24191
H         11.18899       -7.18616       -6.77221
H          8.60983       -7.45661       -6.60054
H          8.92579       -9.22084       -6.61443
H          9.64451       -8.22869      -10.77395
H          9.56210       -5.13351      -10.80322
H          9.71451       -6.25596      -12.28910
