51

C          3.02875        3.45877       -2.89269
C          2.68926        2.24613       -3.76338
C          2.97245        0.86834       -3.12953
C          2.26452        0.60313       -1.77844
N          0.80180        0.45813       -1.83334
C         -0.09763        1.63444       -1.81746
C         -1.36305        1.14690       -2.56329
N         -1.16743       -0.31746       -2.50821
C          0.08502       -0.64422       -2.12041
N          0.48402       -1.91909       -2.06461
C          1.53642       -2.53451       -1.25859
C          1.05814       -3.95578       -0.88233
O          0.45720       -4.56819       -2.03575
C          2.17182       -4.79775       -0.28220
C         -1.48483        1.67081       -3.99828
C         -2.66101        1.10892       -4.82069
C         -4.02525        1.37169       -4.16544
C         -2.61704        1.68566       -6.24226
C          2.72930       -0.25914       -4.14073
H          2.89061        4.39124       -3.45457
H          4.07554        3.42912       -2.55739
H          2.40104        3.53327       -1.99154
H          3.28216        2.29937       -4.68954
H          1.63996        2.29525       -4.10049
H          4.04466        0.85474       -2.85968
H          2.46845        1.41668       -1.06855
H          2.68826       -0.30341       -1.33286
H          0.37208        2.48080       -2.32814
H         -0.30435        1.92576       -0.77582
H         -2.26184        1.40114       -1.98628
H         -1.93589       -0.97505       -2.45238
H         -0.07967       -2.61685       -2.55572
H          1.70900       -1.95058       -0.34469
H          2.48142       -2.59292       -1.82595
H          0.22971       -3.85590       -0.16229
H          1.13852       -5.06210       -2.52219
H          2.99353       -4.94033       -1.00185
H          1.78740       -5.78343        0.00771
H          2.59207       -4.32145        0.61435
H         -0.54087        1.46094       -4.52935
H         -1.57459        2.76980       -3.93994
H         -2.52189        0.01533       -4.90329
H         -4.19442        2.44961       -4.01858
H         -4.13509        0.88201       -3.18602
H         -4.83781        0.99566       -4.80106
H         -2.76620        2.77633       -6.22977
H         -3.40724        1.25114       -6.86882
H         -1.65328        1.48526       -6.73180
H          1.67747       -0.30033       -4.46199
H          2.99963       -1.24502       -3.73667
H          3.33355       -0.10011       -5.04322
