74

C          1.65059        0.20378       -1.47951
C          2.82400       -0.10330       -0.54617
C          3.20807        1.07951        0.34925
C          4.37932        0.78257        1.29057
C          4.78752        1.98695        2.14549
C          5.94703        1.67546        3.10104
C          6.39078        2.92212        3.86625
S          7.71471        2.43956        5.04403
C          8.37659        3.98863        5.40835
N          8.03729        5.18973        4.99827
N          8.94488        6.06780        5.58242
C          9.76123        5.35034        6.29129
O          9.47069        4.00814        6.24959
C         10.88415        5.84476        7.13625
C         12.29421        5.22198        6.88912
C         12.55803        4.61122        5.51539
O         13.77905        3.90914        5.68139
C         14.34498        3.25949        4.58708
C         13.87324        3.44550        3.28501
C         14.48551        2.80120        2.20025
C         13.98561        3.01147        0.79415
C         15.57795        1.96697        2.46286
C         16.03098        1.78409        3.76858
C         15.43567        2.41315        4.86901
C         15.96256        2.13001        6.26974
C         16.46634        3.37678        7.02044
C         14.96519        1.30466        7.10670
N         12.35806        4.20314        7.94835
C         11.44643        4.43147        8.89282
N         11.29384        3.74647       10.03136
N         10.67616        5.49571        8.57021
C          9.55526        5.95543        9.36106
O          8.67708        4.86476        9.58211
C          7.48370        5.25603       10.28243
H          1.40357       -0.65932       -2.11234
H          1.88006        1.04877       -2.14570
H          0.74639        0.46813       -0.91112
H          3.70160       -0.40506       -1.14295
H          2.57602       -0.97267        0.08602
H          2.33014        1.38642        0.94494
H          3.46026        1.94796       -0.28483
H          5.24894        0.44689        0.69874
H          4.11643       -0.06376        1.94915
H          3.91881        2.33962        2.72714
H          5.07304        2.82355        1.48501
H          6.80076        1.27274        2.53225
H          5.63913        0.88582        3.80710
H          5.57025        3.36652        4.44511
H          6.80502        3.69013        3.20066
H         10.91493        6.93394        7.01230
H         13.06420        5.98598        7.08583
H         12.63805        5.42428        4.77346
H         11.75116        3.92541        5.20809
H         13.02452        4.10152        3.08916
H         13.09563        3.65316        0.77063
H         13.72691        2.05516        0.31748
H         14.75663        3.48448        0.16846
H         16.07848        1.45344        1.64044
H         16.88105        1.12304        3.95099
H         16.84235        1.48292        6.12032
H         15.64926        4.06202        7.28462
H         17.18290        3.93859        6.40644
H         16.97784        3.08106        7.94748
H         14.01403        1.84228        7.25310
H         15.38428        1.06837        8.09520
H         14.71489        0.35978        6.60605
H         13.03492        3.44448        7.92531
H         11.89989        2.96009       10.23414
H         10.36341        3.75540       10.44786
H          9.06350        6.76825        8.79913
H          9.92438        6.36092       10.32331
H          6.88686        4.34684       10.40323
H          6.91315        5.99418        9.69655
H          7.71953        5.67766       11.27380
