45

N          2.43586       -2.16623        2.78710
C          2.34191       -2.41735        1.34511
C          2.87404       -1.20369        0.53799
C          4.33183       -1.01105        0.74166
N          5.28515       -1.57495       -0.02226
N          6.46363       -1.22056        0.46112
N          6.27061       -0.44692        1.50254
N          4.93538       -0.30588        1.72774
C          4.37519        0.58528        2.75048
C          4.24135        2.02387        2.20779
O          4.01495        2.93760        3.28364
C          5.14625        3.30987        3.98400
O          6.24142        2.84627        3.72519
C          4.82493        4.27478        5.08583
C          4.56153        3.53099        6.41805
C          4.29527        4.50160        7.56968
C          7.35753        0.08432        2.34922
C          7.67736       -0.82751        3.54043
C          8.32112       -2.17538        3.14850
C          9.53819       -2.00310        2.36714
C         10.53410       -1.81417        1.70722
H          2.60634       -3.03251        3.29588
H          1.55718       -1.79326        3.14813
H          1.31688       -2.62049        0.99544
H          2.94566       -3.29898        1.08997
H          2.31576       -0.29758        0.81345
H          2.72148       -1.37688       -0.53595
H          5.04407        0.56575        3.61753
H          3.42101        0.13674        3.04922
H          3.36991        2.11801        1.54841
H          5.14954        2.30886        1.65640
H          3.94765        4.87538        4.80988
H          5.69093        4.94158        5.19783
H          5.43386        2.90050        6.65055
H          3.70119        2.85521        6.28875
H          5.15184        5.17018        7.73459
H          4.11367        3.95515        8.50423
H          3.41383        5.12772        7.37193
H          7.06869        1.09435        2.67113
H          8.21844        0.14985        1.67011
H          6.77676       -1.00744        4.14747
H          8.37447       -0.25622        4.17056
H          7.60799       -2.79963        2.58367
H          8.54497       -2.73458        4.07046
H         11.42801       -1.67921        1.13387
