45

C          1.37628       -0.15341       -0.21241
C          2.89809       -0.15593       -0.04929
C          3.35143       -0.33192        1.40453
C          4.87268       -0.28891        1.57745
C          5.32708       -0.46467        3.03120
C          6.84292       -0.29441        3.19978
C          7.27999       -0.47780        4.65266
S          9.07531       -0.04472        4.75202
C          9.43983       -0.42747        6.39250
N          9.76949        0.34539        7.38556
N         10.10324       -0.45597        8.47719
C          9.92948       -1.67198        8.06120
O          9.52111       -1.80356        6.78700
N         10.12250       -2.81698        8.82702
C         10.15113       -4.08187        8.35515
N         10.42417       -5.20570        9.04434
N         10.36366       -6.32639        8.25269
C         10.04974       -5.87408        7.06546
N          9.90942       -4.49171        7.09073
C          9.83148       -6.68925        5.83461
C          8.38169       -6.67059        5.39404
C          7.79636       -5.76242        4.60661
Br         8.71779       -4.24535        3.91322
Br         7.30377       -8.07741        6.07643
H          1.08569       -0.02482       -1.26361
H          0.91509        0.66414        0.36131
H          0.93310       -1.09603        0.14174
H          3.31189        0.78736       -0.44401
H          3.33625       -0.95858       -0.66630
H          2.96144       -1.28842        1.79566
H          2.89360        0.45718        2.02655
H          5.25282        0.67430        1.19516
H          5.33966       -1.06823        0.95026
H          5.02072       -1.45992        3.39776
H          4.80746        0.27060        3.66871
H          7.13469        0.71043        2.85185
H          7.37757       -1.01523        2.55933
H          7.14263       -1.51495        4.98660
H          6.74190        0.20076        5.32760
H         10.37078       -2.63655        9.79868
H         10.66436       -5.30202       10.02712
H          9.64391       -3.89320        6.29856
H         10.15425       -7.71424        6.04913
H         10.46321       -6.29421        5.02289
H          6.75404       -5.79747        4.30064
