79

C          2.60168       -4.73407        1.57444
C          3.56382       -4.99202        0.41112
C          4.03779       -3.70185       -0.23812
O          4.95542       -4.02894       -1.29547
C          5.47735       -2.90063       -1.96653
C          6.48945       -3.45427       -2.97415
O          7.10074       -2.47094       -3.77573
C          6.34653       -2.13653       -4.94731
C          7.08283       -1.02464       -5.67102
C          6.39975       -0.52922       -6.95105
C          7.11805        0.68207       -7.55577
C          6.47252        1.18575       -8.84854
C          7.17129        2.41982       -9.42361
N          6.48046        2.88526      -10.62994
N          6.22038       -3.33681       -5.77575
C          5.93347       -4.50587       -5.15803
N          5.68992       -5.63439       -5.82469
C          5.62367       -5.76975       -7.27859
C          6.97053       -6.13264       -7.92015
C          7.62219       -7.40278       -7.35666
S          6.66838       -8.92827       -7.65269
C          6.14558       -9.42934       -6.01730
S          6.31862       -8.53011       -4.60786
N          5.60575      -10.67438       -6.02566
C          5.35714      -11.40364       -7.25315
C          6.16582      -12.49613       -7.58446
C          5.88740      -13.22559       -8.74060
C          4.80782      -12.87000       -9.55516
C          3.99959      -11.78265       -9.21270
C          4.26861      -11.04725       -8.05751
C          5.26751      -11.37263       -4.80232
C          3.92738      -11.64084       -4.51638
C          3.60752      -12.37464       -3.37233
C          4.61992      -12.83790       -2.52847
C          5.95901      -12.57032       -2.82820
C          6.28864      -11.83876       -3.96877
N          5.83980       -4.47643       -3.81869
H          2.26992       -5.67969        2.02165
H          1.70409       -4.19039        1.24635
H          3.07941       -4.14308        2.36884
H          3.07669       -5.61637       -0.35445
H          4.44423       -5.55165        0.76336
H          4.54820       -3.05319        0.49902
H          3.18541       -3.13129       -0.65534
H          6.00748       -2.21523       -1.27946
H          4.67910       -2.32963       -2.48202
H          7.30957       -3.93949       -2.41997
H          5.32820       -1.81984       -4.65786
H          8.10955       -1.36962       -5.87836
H          7.17618       -0.19706       -4.95272
H          5.35068       -0.26486       -6.73513
H          6.35743       -1.33263       -7.70849
H          8.17487        0.42361       -7.74260
H          7.13331        1.49632       -6.81103
H          5.41289        1.43502       -8.67742
H          6.48097        0.37942       -9.60406
H          8.24675        2.19043       -9.57613
H          7.13011        3.23385       -8.68232
H          6.62516        2.23415      -11.40323
H          6.85404        3.78349      -10.93638
H          6.68668       -3.35739       -6.67647
H          5.80013       -6.53569       -5.30348
H          5.21567       -4.84566       -7.71159
H          4.89458       -6.56672       -7.48305
H          7.69185       -5.30746       -7.78913
H          6.81286       -6.23243       -9.00504
H          7.78561       -7.34524       -6.26841
H          8.59225       -7.57364       -7.84180
H          7.00075      -12.76783       -6.93833
H          6.51614      -14.07613       -9.00526
H          4.59208      -13.44652      -10.45497
H          3.15012      -11.51133       -9.84018
H          3.63947      -10.20361       -7.77199
H          3.14459      -11.28291       -5.18518
H          2.56337      -12.58882       -3.14255
H          4.36582      -13.41469       -1.63884
H          6.75148      -12.93720       -2.17533
H          7.32906      -11.62665       -4.21477
H          5.39293       -5.24420       -3.32403
