39

C          4.45554       -5.39328        1.81202
O          4.46519       -4.04024        1.26526
C          4.67829       -3.94386       -0.04629
O          4.86788       -4.85926       -0.82145
C          4.63313       -2.46471       -0.48457
C          5.45279       -2.27152       -1.70449
N          6.70330       -1.80025       -1.69565
N          7.15583       -1.83804       -2.94130
N          6.22603       -2.30906       -3.72937
N          5.11929       -2.60465       -2.98007
I          3.29862       -3.38046       -3.58392
C          6.46500       -2.51209       -5.21566
C          5.44944       -1.71949       -6.07188
C          5.45070       -0.17781       -6.04423
C          4.48787        0.31694       -7.13513
C          5.07732        0.43664       -4.68527
C          7.91818       -2.00524       -5.45545
O          8.12643       -2.12871       -6.85382
C          6.39506       -4.02138       -5.49957
H          4.30072       -5.26064        2.88556
H          5.41501       -5.88327        1.60954
H          3.63808       -5.97133        1.36499
H          5.03151       -1.81598        0.30475
H          3.58025       -2.18854       -0.65065
H          4.43275       -2.08812       -5.86551
H          5.67271       -2.04409       -7.09875
H          6.46096        0.17004       -6.31586
H          3.45198        0.01130       -6.91993
H          4.75751       -0.08013       -8.12317
H          4.50176        1.41284       -7.19893
H          4.11644        0.04170       -4.31618
H          4.95688        1.52376       -4.78179
H          5.84146        0.27997       -3.91210
H          8.62426       -2.62304       -4.87741
H          8.02109       -0.96144       -5.11803
H          9.07423       -2.03681       -7.03514
H          5.36856       -4.40538       -5.49938
H          6.99251       -4.59087       -4.77572
H          6.81593       -4.18352       -6.49914
