49

C          0.43798        0.23432       -0.40727
C          1.87487       -0.09378       -0.06301
O          2.73562        0.86537       -0.71355
C          4.10579        0.63761       -0.45056
C          4.85323        1.73169       -1.22513
N          4.32830        3.03703       -0.78434
C          5.10457        3.72199        0.02843
S          6.63624        3.10343        0.31124
C          6.39805        1.83791       -1.08324
C          7.11369        0.51740       -0.76260
C          6.88780       -0.04925        0.63406
O          6.89003        0.63588        1.64301
O          6.73136       -1.37745        0.59326
C          6.53063       -2.06819        1.87837
C          5.04896       -2.20698        2.19856
C          4.25780       -3.02451        1.17416
C          7.03084        2.52477       -2.34099
C          6.87573        1.74663       -3.63049
C          5.78412        1.99441       -4.47884
C          5.62463        1.27871       -5.66776
C          6.56248        0.30885       -6.02958
C          7.66606        0.06887       -5.20572
C          7.82176        0.78339       -4.01655
H         -0.23414       -0.48240        0.08291
H          0.26890        0.17446       -1.49010
H          0.16693        1.24142       -0.06331
H          2.14696       -1.10770       -0.40718
H          2.04909       -0.05039        1.02834
H          4.42511       -0.35670       -0.81252
H          4.31558        0.69896        0.63437
H          4.61503        1.60364       -2.29223
H          3.32951        3.22239       -0.87843
H          4.74858        4.62760        0.52173
H          8.20008        0.67637       -0.85571
H          6.84798       -0.22944       -1.52143
H          7.06593       -1.51065        2.65606
H          7.00668       -3.04422        1.72213
H          4.61205       -1.20365        2.32483
H          4.98589       -2.68398        3.18978
H          4.32437       -2.59158        0.16630
H          3.19594       -3.07357        1.44788
H          4.63187       -4.05590        1.11159
H          8.09626        2.69193       -2.12376
H          6.57555        3.51903       -2.46130
H          5.06795        2.78123       -4.22763
H          4.77645        1.49113       -6.31914
H          6.44420       -0.24539       -6.96079
H          8.41616       -0.66705       -5.49634
H          8.70390        0.60602       -3.39794
