46

Br         1.13045       -0.92295        0.58233
C          2.99298       -0.33773        0.63055
C          3.72087       -0.97683        1.81106
C          5.18068       -0.52769        1.83479
N          5.95301       -1.08051        3.01206
C          7.35139       -0.49281        3.12172
C          8.26222       -1.55807        2.51093
C          7.63096       -2.84975        3.05180
C          6.11117       -2.63967        2.99502
C          5.27076       -3.25078        4.11937
C          4.93537       -4.75258        3.96653
C          6.16570       -5.67200        3.95464
C          3.96532       -5.16200        5.08483
C          9.74536       -1.39418        2.85635
C         10.34888       -0.11282        2.26454
C         11.80315        0.13126        2.50955
C         12.73009       -0.62142        3.11422
F         12.49779       -1.82374        3.64635
F         13.99404       -0.26315        3.25724
F         12.21753        1.33154        2.02161
H          2.96707        0.75585        0.69972
H          3.42781       -0.63035       -0.33213
H          3.64372       -2.07076        1.72975
H          3.21948       -0.68448        2.74784
H          5.24774        0.56681        1.91076
H          5.72174       -0.84049        0.93077
H          5.42207       -0.84218        3.85947
H          7.56971       -0.35708        4.19091
H          7.36328        0.48560        2.62953
H          8.15192       -1.53163        1.41194
H          7.95175       -3.02034        4.09147
H          7.92968       -3.72903        2.47058
H          5.71754       -2.94701        2.01563
H          4.30806       -2.71496        4.17517
H          5.78332       -3.08448        5.08404
H          4.40825       -4.87007        3.00187
H          6.78898       -5.52067        4.84942
H          6.79850       -5.53245        3.06822
H          5.84737       -6.72248        3.95259
H          4.43941       -5.06973        6.07407
H          3.65582       -6.20820        4.96458
H          3.05668       -4.54315        5.08635
H         10.28226       -2.27416        2.47594
H          9.86687       -1.40617        3.95125
H          9.81978        0.77534        2.65477
H         10.18887       -0.09916        1.17098
