75

C          1.56123       -0.62208       -7.64694
C          3.07893       -0.43833       -7.58870
C          3.50599        0.75789       -6.73272
C          5.02319        0.95635       -6.66722
C          5.43923        2.15265       -5.80630
C          6.95587        2.35502       -5.72812
C          7.34938        3.55654       -4.86269
C          8.86821        3.77395       -4.78491
C          9.19920        4.98606       -3.92170
N         10.69805        5.20605       -3.78526
C         11.31900        5.84463       -5.01115
C         12.84129        5.77799       -4.93044
C         13.39103        6.33794       -3.61105
C         12.68489        5.69946       -2.40422
C         11.14898        5.89380       -2.47970
C         10.69363        7.35575       -2.37490
C          9.18776        7.59509       -2.30647
O          8.54350        8.08075       -3.21625
O          8.69201        7.19956       -1.11905
C          7.25490        7.42221       -0.89338
C          7.00361        8.80681       -0.32893
C         13.27505        6.14746       -1.06264
C         12.75601        5.33051        0.11749
O         12.09009        4.31529       -0.00229
O         13.14288        5.88040        1.27709
C         12.79468        5.17539        2.51738
C         13.96840        4.34481        3.01180
C         13.67929        3.71013        4.37868
C         14.85749        2.88729        4.90404
H          1.28415       -1.48752       -8.26380
H          1.06878        0.26339       -8.07518
H          1.14080       -0.78135       -6.64286
H          3.47584       -0.31315       -8.61019
H          3.54790       -1.35429       -7.19131
H          3.11028        0.63148       -5.70943
H          3.03428        1.67467       -7.12829
H          5.41916        1.08634       -7.68961
H          5.49509        0.03976       -6.27224
H          5.03683        2.02479       -4.78647
H          4.97070        3.06924       -6.20507
H          7.36067        2.48899       -6.74617
H          7.42875        1.44205       -5.32687
H          6.94833        3.42096       -3.84383
H          6.87378        4.46760       -5.26352
H          9.26389        3.90102       -5.80539
H          9.34658        2.87241       -4.36196
H          8.81648        4.84582       -2.90128
H          8.77248        5.91146       -4.32682
H         11.10869        4.26186       -3.71462
H         10.93582        6.87190       -5.05610
H         10.93648        5.30191       -5.88364
H         13.25269        6.32264       -5.79142
H         13.16124        4.72884       -5.04927
H         13.28480        7.43401       -3.58618
H         14.46941        6.13464       -3.55091
H         12.84549        4.60557       -2.45046
H         10.68212        5.30057       -1.68116
H         11.08203        7.97388       -3.19231
H         11.12643        7.73913       -1.43990
H          6.97966        6.63257       -0.18387
H          6.73011        7.26915       -1.84521
H          7.56295        8.96174        0.60278
H          5.93344        8.91623       -0.10528
H          7.27890        9.58602       -1.05058
H         13.12466        7.21855       -0.86336
H         14.36829        6.01325       -1.09270
H         11.90533        4.55944        2.33096
H         12.54715        5.98024        3.22177
H         14.86005        4.98814        3.08256
H         14.19435        3.55673        2.27530
H         12.78424        3.07064        4.30479
H         13.43159        4.50361        5.10303
H         15.10681        2.06435        4.21837
H         14.62825        2.44689        5.88325
H         15.75684        3.50951        5.01994
