75

N          1.05135        0.26533        0.12842
C          2.35946       -0.04674        0.07043
N          2.81354       -0.70051       -1.01727
C          2.04509       -0.90439       -2.25175
C          2.97159       -1.31887       -3.39683
C          2.17199       -1.49535       -4.69181
S          3.31890       -1.92350       -6.03163
C          2.24646       -1.85900       -7.44084
S          0.65480       -1.45568       -7.39328
N          2.93175       -2.18215       -8.61606
C          4.24259       -2.65858       -8.76121
C          4.44480       -2.77535      -10.10615
N          3.31314       -2.38316      -10.81386
C          2.43067       -2.03988       -9.91750
N          3.19583        0.28152        1.07626
C          2.70680        0.71318        2.39923
C          3.00014        2.18456        2.76589
C          2.18247        3.28011        2.08046
C          0.68444        3.41030        2.51176
Br         0.43181        3.69498        4.41533
F          0.07555        4.37725        1.81393
F          0.04358        2.22448        2.17350
Br         3.05089        5.00959        2.35802
F          2.13774        3.03955        0.70899
C          4.65440        0.10456        0.94412
C          5.17835       -1.22855        1.49872
C          6.69890       -1.31585        1.32460
S          7.30707       -2.74301        2.27093
C          9.05145       -2.71913        1.82196
S          9.69597       -1.63186        0.75292
N          9.74798       -3.71173        2.45632
C          9.17544       -4.50441        3.52107
C          8.94903       -5.87169        3.31920
C          8.43980       -6.64775        4.36193
C          8.15769       -6.06440        5.60125
C          8.39073       -4.70025        5.80013
C          8.90407       -3.91714        4.76448
C         11.11812       -4.01322        2.10248
C         12.11846       -3.87210        3.06842
C         13.43673       -4.20364        2.74734
C         13.75212       -4.67630        1.47133
C         12.74410       -4.82135        0.51247
C         11.42518       -4.49140        0.82404
H          0.42610       -0.07667       -0.58961
H          0.71783        1.03454        0.70016
H          3.70431       -1.18003       -0.94573
H          1.54260        0.04141       -2.50794
H          1.27076       -1.67716       -2.10058
H          3.48343       -2.25965       -3.13508
H          3.74590       -0.54817       -3.53424
H          1.64871       -0.57311       -4.98257
H          1.41938       -2.29199       -4.60512
H          4.87472       -2.88529       -7.91126
H          5.33638       -3.12444      -10.61765
H          1.42440       -1.67210      -10.08773
H          3.23021        0.09669        3.14500
H          1.64561        0.46182        2.49354
H          4.05610        2.40875        2.56471
H          2.86825        2.29693        3.85079
H          5.13067        0.93576        1.48310
H          4.93191        0.24498       -0.11044
H          4.68830       -2.08108        1.00061
H          4.91568       -1.30522        2.56586
H          7.20099       -0.41222        1.69999
H          6.99282       -1.43267        0.27211
H          9.18248       -6.31874        2.35243
H          8.26650       -7.71310        4.20632
H          7.76791       -6.67553        6.41596
H          8.18644       -4.24522        6.77010
H          9.10107       -2.85489        4.91213
H         11.86567       -3.50467        4.06338
H         14.21911       -4.08821        3.49815
H         14.78225       -4.93436        1.22386
H         12.98517       -5.19422       -0.48362
H         10.63497       -4.59222        0.08027
