67

C          6.81858        9.32854       -5.00421
C          5.49592        9.11558       -4.26368
C          5.22595        7.64159       -3.94290
C          3.90011        7.45352       -3.19693
N          3.56339        6.03845       -2.95749
C          2.87483        5.34000       -3.88497
S          2.38677        5.95714       -5.35841
S          2.51803        3.64795       -3.35480
C          1.71113        2.90033       -4.79776
C          0.17934        2.83704       -4.68886
C         -0.48615        4.17685       -4.99553
N         -1.93622        4.21238       -4.54448
C         -2.07857        4.48389       -3.02736
C         -1.68884        5.87559       -2.62140
C         -2.65546        6.89270       -2.55340
C         -2.29027        8.19096       -2.19771
C         -0.95521        8.48515       -1.90495
C          0.00850        7.47457       -1.94685
C         -0.35632        6.17367       -2.29395
C         -2.78646        5.14816       -5.37568
C         -2.99827        4.64511       -6.80097
C         -4.14131        5.42539       -7.49314
C         -5.41756        5.27560       -6.80587
C         -6.45601        5.12523       -6.20317
C          4.08534        5.45769       -1.70884
C          3.18582        5.68157       -0.48685
C          3.79074        5.08425        0.78891
C          2.92437        5.31937        2.02798
H          6.98311       10.39091       -5.22768
H          6.83369        8.78119       -5.95798
H          7.67309        8.97861       -4.40659
H          4.66378        9.50671       -4.87249
H          5.49553        9.70387       -3.33015
H          6.05417        7.23045       -3.34181
H          5.18942        7.05940       -4.87649
H          3.07619        7.89570       -3.77345
H          3.93670        7.94512       -2.21249
H          2.12333        1.88445       -4.85260
H          2.04123        3.47093       -5.68069
H         -0.08419        2.48758       -3.67786
H         -0.19089        2.07332       -5.39402
H         -0.47634        4.37478       -6.07215
H          0.01862        5.02370       -4.51599
H         -2.32508        3.26925       -4.69018
H         -1.45450        3.72814       -2.53481
H         -3.13123        4.27286       -2.79764
H         -3.70275        6.66732       -2.76597
H         -3.04883        8.97187       -2.14227
H         -0.67000        9.50121       -1.63085
H          1.04719        7.69517       -1.70283
H          0.39780        5.38428       -2.30383
H         -2.30439        6.13345       -5.34423
H         -3.75781        5.22159       -4.86695
H         -3.26824        3.57587       -6.78644
H         -2.08763        4.74917       -7.40660
H         -4.23492        5.06596       -8.52918
H         -3.87901        6.49413       -7.56332
H         -7.39765        5.00645       -5.70799
H          5.07336        5.91106       -1.53646
H          4.26492        4.38422       -1.86564
H          2.19646        5.23330       -0.67185
H          3.01986        6.76248       -0.34396
H          4.79284        5.51474        0.95206
H          3.94598        4.00209        0.64416
H          2.78536        6.39295        2.22219
H          3.38240        4.87781        2.92257
H          1.92645        4.87117        1.91096
