49

C          3.92761       -0.65536       -5.47905
C          4.26344        0.80592       -5.17255
C          4.43527        1.06612       -3.67039
C          4.73863        2.52579       -3.36519
O          4.80090        2.76584       -1.92742
C          6.03875        2.68037       -1.32589
N          6.77365        4.01812       -1.33935
C          6.15829        5.08682       -0.73034
C          4.92713        4.91041        0.11877
C          5.22145        4.49419        1.58295
C          6.08150        5.45034        2.39398
Br         5.28503        7.24563        2.53802
C          6.72928        6.35282       -0.87420
C          7.90164        6.51820       -1.60155
C          8.53237        5.39421       -2.13441
C          7.97995        4.11782       -1.99960
Si         9.08028        2.60183       -2.57185
C         10.71606        3.33949       -3.12451
C          9.35836        1.51222       -1.05989
C          8.32408        1.66827       -4.01954
H          3.80716       -0.81653       -6.55803
H          2.99065       -0.95763       -4.99010
H          4.72038       -1.33119       -5.12675
H          3.46501        1.45763       -5.56347
H          5.18372        1.09591       -5.70716
H          5.23812        0.42161       -3.27154
H          3.51596        0.78319       -3.13368
H          3.92820        3.17604       -3.72270
H          5.67370        2.86295       -3.84182
H          6.71111        1.96189       -1.81064
H          5.89674        2.40165       -0.27374
H          4.23817        4.18823       -0.33141
H          4.40946        5.87943        0.14318
H          5.71973        3.50966        1.61512
H          4.24922        4.36404        2.07946
H          7.07721        5.60923        1.96459
H          6.18971        5.10253        3.42583
H          6.23377        7.19687       -0.39397
H          8.33423        7.51091       -1.73393
H          9.47689        5.50349       -2.66377
H         11.22313        3.90671       -2.33231
H         10.61949        3.98013       -4.01183
H         11.37989        2.50704       -3.40183
H          9.75735        2.09565       -0.21835
H         10.10922        0.74908       -1.31300
H          8.46224        0.98091       -0.71365
H          8.06109        2.34637       -4.84317
H          7.44044        1.06833       -3.76889
H          9.08754        0.97328       -4.40079
