66

C          0.72568       -0.46173        0.65276
C          2.22998       -0.27172        0.44341
C          2.84019       -1.30092       -0.51427
C          4.34677       -1.12807       -0.73044
C          4.94566       -2.16540       -1.68510
C          6.45647       -2.01680       -1.89142
C          7.04100       -3.07813       -2.82902
C          8.55769       -2.96728       -3.01451
C          9.12265       -4.05894       -3.93075
C         10.65010       -3.97747       -4.07907
C         11.16092       -5.10744       -4.97104
S         12.97842       -5.00417       -5.21638
C         13.48911       -5.42229       -3.41310
O         13.24129       -6.49232       -2.93908
O         14.07836       -4.35161       -2.94760
C         14.50647       -4.39092       -1.50826
C         13.35045       -4.02883       -0.60371
C         13.39400       -6.60501       -6.01181
C         12.86590       -6.68822       -7.44498
C         13.32711       -7.99850       -8.10102
C         12.79674       -8.14685       -9.54071
N         13.19528       -9.40170      -10.14187
C         14.39259       -9.62926      -10.79366
C         14.47709      -10.97848      -11.07566
C         13.29799      -11.59496      -10.56855
C         12.52854      -10.60343       -9.99227
H          0.31580        0.29033        1.34050
H          0.50314       -1.45326        1.07440
H          0.17662       -0.37685       -0.29685
H          2.74869       -0.32853        1.41552
H          2.42452        0.74328        0.05725
H          2.32236       -1.24296       -1.48806
H          2.64185       -2.31704       -0.12931
H          4.86439       -1.18671        0.24337
H          4.54765       -0.11388       -1.11816
H          4.43607       -2.09953       -2.66241
H          4.73081       -3.17851       -1.30178
H          6.96570       -2.07344       -0.91318
H          6.67722       -1.01128       -2.29013
H          6.54678       -3.00858       -3.81364
H          6.79654       -4.08132       -2.43819
H          9.05195       -3.02682       -2.02892
H          8.81090       -1.97478       -3.42500
H          8.65313       -3.98574       -4.92621
H          8.84843       -5.05008       -3.53132
H         11.11386       -4.04287       -3.08144
H         10.93746       -3.00193       -4.50237
H         10.75106       -5.03780       -5.98901
H         10.95048       -6.10648       -4.56227
H         15.31293       -3.65060       -1.48918
H         14.90803       -5.39346       -1.31693
H         12.93509       -3.04602       -0.86042
H         13.72234       -3.97714        0.42909
H         12.55555       -4.78504       -0.63159
H         13.00521       -7.39753       -5.35682
H         14.49400       -6.63044       -5.98536
H         13.22387       -5.82648       -8.03102
H         11.76526       -6.64720       -7.44821
H         12.98199       -8.86015       -7.50848
H         14.42693       -8.04707       -8.11997
H         13.16656       -7.32349      -10.17071
H         11.69714       -8.09066       -9.54879
H         15.06783       -8.80935      -11.01836
H         15.28785      -11.46470      -11.60829
H         13.03155      -12.64449      -10.63826
H         11.55732      -10.64394       -9.50913
