108

C          3.56217       -1.34446       -2.12997
C          4.36882       -0.19575       -1.52011
C          4.27753       -0.13231        0.00895
C          5.10110        1.00409        0.62296
C          5.01775        1.07142        2.15159
C          5.85869        2.20138        2.75502
C          5.80869        2.24185        4.28534
C          6.68695        3.36166        4.85759
N          6.71876        3.40231        6.32999
C          5.93262        4.19557        7.08459
S          6.06586        4.32295        8.75436
S          4.70755        5.11518        6.13518
C          4.29203        6.52298        7.22391
C          2.87947        6.54702        7.81727
C          2.59810        5.52424        8.93266
C          2.16516        4.14093        8.42098
C          0.72226        4.08664        7.90541
N         -0.03522        3.73196        9.14049
C          0.82662        3.00788        9.95995
N          0.48528        2.21030       10.95889
N          2.08206        3.15949        9.53216
C          3.23353        2.41887       10.03765
C          3.30260        1.01496        9.40768
C          4.40807        0.18077       10.04038
C          4.47915       -1.32778        9.60322
C          4.56788       -1.68545        8.06793
C          5.69892       -1.01403        7.21232
F          6.89795       -1.12742        7.79870
F          5.74324       -1.59487        6.00363
F          5.42001        0.30108        7.03599
F          4.72984       -3.02483        7.98847
F          3.37721       -1.35481        7.48251
F          5.53701       -1.89311       10.22858
F          3.33596       -1.92947       10.04886
F          5.63292        0.74704        9.82059
F          4.22236        0.14837       11.40637
C         -1.37326        4.15555        9.18926
O         -1.92561        4.52055        8.17586
C         -2.11619        4.39604       10.54377
C         -3.52479        3.69414       10.66753
C         -3.54502        2.12537       10.54686
C         -3.05730        1.38334       11.82950
O         -1.87333        1.27964       12.07066
O         -3.99571        0.88050       12.61680
F         -4.82768        1.75033       10.27124
F         -2.74977        1.74684        9.50375
F         -4.03095        4.00582       11.89593
F         -4.33799        4.19723        9.72026
F         -1.36818        4.07427       11.63826
F         -2.34513        5.73387       10.59360
C          7.75582        2.56474        6.96398
C          9.07814        3.31504        7.15636
C         10.12878        2.45910        7.86886
C         11.43098        3.22232        8.13199
C         12.49959        2.39474        8.85198
C         13.78229        3.18092        9.14134
C         14.86469        2.36114        9.85130
C         16.13673        3.16134       10.14180
H          3.64651       -1.35836       -3.22514
H          2.49374       -1.26001       -1.88089
H          3.91124       -2.31961       -1.75875
H          4.02353        0.76291       -1.94290
H          5.42733       -0.29022       -1.81529
H          4.61132       -1.09582        0.43336
H          3.21946       -0.02228        0.30673
H          4.76995        1.96747        0.19681
H          6.15752        0.89011        0.32296
H          5.34511        0.10683        2.57769
H          3.96369        1.19561        2.45720
H          5.51931        3.16959        2.34841
H          6.90720        2.08704        2.42942
H          6.14161        1.27266        4.68845
H          4.76941        2.38127        4.62620
H          6.35299        4.34166        4.48893
H          7.72687        3.23101        4.52297
H          4.44049        7.40742        6.58990
H          5.05517        6.51902        8.01658
H          2.12748        6.47428        7.01395
H          2.74481        7.55294        8.24455
H          1.80789        5.90952        9.59785
H          3.50518        5.40020        9.54107
H          2.87202        3.76721        7.66831
H          0.56808        3.30974        7.14244
H          0.34990        5.03912        7.51726
H         -0.48097        1.99851       11.25227
H          1.22073        1.79181       11.51848
H          3.19719        2.37184       11.13589
H          4.13164        3.00180        9.77079
H          3.49220        1.10479        8.33101
H          2.35624        0.47036        9.53585
H         -4.88701        1.02186       12.23696
H          7.89501        1.68301        6.32136
H          7.36839        2.22791        7.93381
H          8.88046        4.22326        7.74589
H          9.46457        3.64716        6.17833
H         10.34300        1.55445        7.27327
H          9.71481        2.10227        8.82803
H         11.20417        4.12321        8.72853
H         11.83838        3.59047        7.17397
H         12.74376        1.50455        8.24594
H         12.08559        2.00964        9.80061
H         13.53546        4.06584        9.75476
H         14.18932        3.57693        8.19405
H         15.11462        1.48063        9.23555
H         14.45655        1.96161       10.79540
H         16.58151        3.55539        9.21567
H         16.89746        2.54358       10.63832
H         15.92703        4.01998       10.79728
