41

N          4.75113        1.04662       -4.05209
C          3.42467        1.48540       -3.54999
C          3.06808        0.81616       -2.22025
C          4.16022        0.85088       -1.13670
C          4.74660        2.26099       -0.83636
C          6.21829        2.39011       -1.11334
C          7.12394        2.91847       -0.20194
C          8.48858        3.00750       -0.51622
C          9.48873        3.50604        0.49077
C          9.96118        2.37775        1.41588
F         10.55745        1.36261        0.65471
C          8.90864        2.54237       -1.76775
C          7.99340        1.99795       -2.66405
N          6.68631        1.94993       -2.31166
C          8.38878        1.40624       -3.99011
C          9.36941        0.21821       -3.86134
C          8.95333       -0.88180       -2.89953
Br         7.23321       -1.73088       -3.38796
H          4.89591        1.40736       -4.99785
H          4.78722        0.02624       -4.13204
H          2.62213        1.28591       -4.27778
H          3.47131        2.57998       -3.43447
H          2.80215       -0.23743       -2.40259
H          2.15057        1.29570       -1.84622
H          4.97586        0.16331       -1.40782
H          3.73667        0.44229       -0.20993
H          4.57947        2.53514        0.21228
H          4.21700        3.02802       -1.42676
H          6.75638        3.25826        0.76672
H          9.04634        4.29248        1.12058
H         10.36131        3.93826       -0.01875
H          9.12232        1.92687        1.96837
H         10.71126        2.75106        2.12742
H          9.96249        2.58208       -2.04104
H          5.95731        1.54513       -3.03218
H          8.86227        2.18607       -4.60532
H          7.48899        1.07718       -4.52516
H         10.35180        0.58111       -3.51333
H          9.53472       -0.19773       -4.86512
H          8.81204       -0.52658       -1.87274
H          9.67225       -1.70633       -2.89805
