71

C          0.13366        1.78466       -1.67855
C          1.63059        1.46818       -1.70092
C          1.97211        0.22948       -2.53849
C          3.47255       -0.09061       -2.54260
C          3.79295       -1.31195       -3.38171
O          5.24645       -1.52532       -3.31433
C          5.73104       -2.55678       -4.02231
O          5.07690       -3.35929       -4.65567
C          7.26449       -2.57490       -3.94188
C          7.82648       -3.94440       -4.21179
C          8.40157       -4.19703       -5.44605
N          8.92118       -5.41573       -5.71343
C          8.92808       -6.41921       -4.81209
C          8.36668       -6.24028       -3.55229
C          7.76915       -4.99027       -3.25571
C          7.13280       -4.74703       -1.91993
C          8.18757       -4.22327       -0.90024
O          9.27465       -4.77924       -0.78739
N          7.79861       -3.13679       -0.18674
C          8.61072       -2.58336        0.90079
C          8.27745       -3.18415        2.27083
C          9.14241       -2.59500        3.39136
C          8.81379       -3.17791        4.76797
C          8.39992       -7.41746       -2.61349
C          7.24665       -8.40614       -2.89126
C          7.49483       -9.74285       -2.17982
S          6.62975      -11.14193       -2.93489
C          7.61775      -11.44118       -4.36695
S          9.04723      -10.69541       -4.73027
N          7.06765      -12.44241       -5.17117
C          5.76254      -12.96231       -5.13419
N          5.58277      -13.88103       -6.04015
C          6.80090      -13.99939       -6.70430
C          7.72078      -13.12538       -6.20306
H         -0.07530        2.67953       -1.07747
H         -0.44523        0.95393       -1.24908
H         -0.25216        1.96838       -2.69192
H          1.99288        1.31954       -0.66974
H          2.18722        2.33487       -2.09510
H          1.62381        0.38307       -3.57442
H          1.40864       -0.63834       -2.15374
H          3.82046       -0.25883       -1.51002
H          4.03869        0.77153       -2.93006
H          3.51786       -1.18119       -4.43825
H          3.29646       -2.22101       -3.01172
H          7.59185       -2.18720       -2.96832
H          7.63133       -1.85884       -4.69279
H          8.46198       -3.45652       -6.24112
H          9.33551       -5.58025       -6.63058
H          9.38352       -7.35872       -5.12507
H          6.74059       -5.68558       -1.50671
H          6.28540       -4.05703       -2.01060
H          6.84695       -2.80084       -0.29339
H          8.46205       -1.49329        0.90526
H          9.66008       -2.77827        0.64173
H          8.42016       -4.27599        2.22232
H          7.21049       -3.01369        2.49589
H          9.01462       -1.49963        3.41404
H         10.20555       -2.77280        3.15865
H          7.76791       -2.98300        5.04702
H          9.45164       -2.74035        5.54699
H          8.96575       -4.26702        4.78787
H          8.41639       -7.07766       -1.57100
H          9.34942       -7.95038       -2.77314
H          7.19054       -8.58378       -3.97447
H          6.27667       -7.98171       -2.59128
H          7.14308       -9.73697       -1.13834
H          8.56434       -9.99922       -2.18561
H          5.01181      -12.58551       -4.44589
H          6.93283      -14.71651       -7.50828
H          8.75624      -12.91846       -6.43931
