63

C          2.72134       -1.41010       -1.06871
C          3.60296       -0.17259       -0.89348
C          4.22811       -0.06560        0.50250
C          5.12260        1.16887        0.65370
C          5.70863        1.34529        2.06344
C          6.56985        2.59439        2.10633
O          7.02391        2.92738        3.47776
C          8.23552        2.52665        3.83365
O          9.01441        1.85153        3.17798
C          8.61975        3.05373        5.22004
P         10.43198        2.95612        5.35837
C         11.27298        3.89309        4.06025
C         12.79029        3.63243        3.98713
O         13.34738        4.36398        2.88954
C         13.50206        5.72027        3.11382
O         13.17670        6.23363        4.16472
C         14.08866        6.40974        1.91005
C         13.24737        6.23976        0.62816
C         11.82827        6.79806        0.74823
C         10.97489        3.49890        7.02355
O         10.34272        2.64372        7.93572
C         10.83601        2.81883        9.29543
C         10.14123        1.82682       10.20775
C         10.62572        1.95839       11.65916
C          9.92541        0.98015       12.60457
H          2.28048       -1.44602       -2.07391
H          1.89504       -1.41741       -0.34296
H          3.29862       -2.33505       -0.92524
H          3.00888        0.73570       -1.09063
H          4.40557       -0.18001       -1.65007
H          4.81538       -0.97585        0.71379
H          3.42621       -0.03451        1.26026
H          4.53927        2.06880        0.39234
H          5.94367        1.11230       -0.08147
H          6.31052        0.46500        2.33846
H          4.89463        1.43396        2.79977
H          5.99851        3.48473        1.81516
H          7.46082        2.49769        1.47297
H          8.18857        2.42643        6.01596
H          8.27657        4.08438        5.38721
H         10.78276        1.59329        5.26194
H         11.08946        4.96057        4.25640
H         10.79482        3.60681        3.11307
H         13.00070        2.57785        3.76693
H         13.29043        3.93004        4.91977
H         15.09586        5.99657        1.74351
H         14.19544        7.46927        2.17553
H         13.21694        5.17547        0.35335
H         13.77991        6.75495       -0.18416
H         11.24678        6.27466        1.52338
H         11.28345        6.68840       -0.19850
H         11.83624        7.86602        1.00863
H         10.71573        4.56963        7.15592
H         12.08158        3.42082        7.04793
H         10.63852        3.85938        9.61018
H         11.93003        2.65971        9.29259
H         10.32909        0.80494        9.84126
H          9.05302        1.99191       10.16023
H         10.45967        2.99087       12.00803
H         11.71492        1.79224       11.69718
H          8.83861        1.14608       12.61678
H         10.29151        1.09689       13.63283
H         10.10186       -0.06262       12.30402
