59

N          1.21958       -0.94803       -0.07675
C          2.57769       -0.63338        0.17966
C          3.03182        0.66639       -0.48096
C          4.53744        0.96586       -0.36307
C          4.99991        1.31580        1.06693
C          4.35919        2.56871        1.67669
C          4.91548        2.87677        3.06970
C          4.28050        4.11875        3.71562
N          4.78324        4.36898        5.05393
C          5.94043        5.05779        5.35481
C          6.16570        4.94962        6.71422
C          5.11475        4.15825        7.25703
C          4.28119        3.80844        6.21135
C          5.31466       -0.22285       -0.95481
C          4.95162       -1.54571       -0.29370
N          3.46886       -1.82755       -0.38728
C          3.07863       -3.14255        0.24229
C          3.64918       -4.35914       -0.48506
C          3.03941       -5.63920        0.10214
S          3.81816       -7.06426       -0.70739
C          3.01413       -8.41219        0.11944
S          1.89558       -8.24443        1.30947
N          3.46279       -9.64225       -0.36483
C          4.32904       -9.89537       -1.43885
C          4.47237      -11.25164       -1.48399
N          3.73516      -11.86254       -0.47459
C          3.14480      -10.89827        0.17326
H          0.75059       -0.31262       -0.71586
H          0.64509       -1.13536        0.73805
H          2.81226       -0.65171        1.25425
H          2.43517        1.47201       -0.03083
H          2.74357        0.63120       -1.54706
H          4.73917        1.84352       -0.99766
H          6.09290        1.45570        1.03844
H          4.83464        0.46833        1.75583
H          3.26432        2.44534        1.74890
H          4.52464        3.42860        1.00506
H          6.00581        3.02414        3.01555
H          4.75342        2.01505        3.73794
H          3.18709        4.00210        3.77667
H          4.47169        5.01110        3.09995
H          6.49398        5.57830        4.57948
H          6.98545        5.40602        7.25925
H          4.97147        3.89214        8.29920
H          3.36372        3.22837        6.19405
H          6.39836       -0.07822       -0.83705
H          5.13222       -0.29315       -2.04042
H          5.19816       -1.55795        0.77710
H          5.47366       -2.38550       -0.76687
H          3.21121       -1.88311       -1.38449
H          1.98200       -3.16521        0.22120
H          3.41273       -3.10065        1.28914
H          4.74445       -4.39855       -0.39130
H          3.41486       -4.29538       -1.56127
H          1.95372       -5.68894       -0.06135
H          3.21740       -5.72036        1.18410
H          4.72935       -9.10492       -2.06199
H          5.05916      -11.83644       -2.18560
H          2.48750      -10.98612        1.03179
