41

C          5.85086       -1.73650       -1.88866
C          5.01733       -0.98362       -1.44020
C          4.05392       -0.03969       -0.88844
C          4.56306        1.41977       -0.92443
C          5.88957        1.55883       -0.18402
N          6.43576        2.97750       -0.25768
C          5.86162        3.84062        0.84535
C          6.09091        5.35213        0.72215
C          5.30194        6.12441       -0.34882
S          5.93659        5.85802       -2.01484
O          7.32052        6.27180       -2.08018
O          5.56474        4.50700       -2.41671
O          5.02209        6.82931       -2.89953
C          7.94945        2.98462       -0.30593
C          8.45344        2.66149       -1.71646
C          9.90704        2.17977       -1.71540
C         10.04581        0.79113       -1.09350
O          9.11264        0.16384       -0.64042
O         11.29312        0.26558       -1.06049
H          6.57266       -2.42409       -2.27797
H          3.81007       -0.32714        0.14829
H          3.10939       -0.09617       -1.45109
H          3.78711        2.06971       -0.49094
H          4.69784        1.72581       -1.97330
H          6.64858        0.89616       -0.62036
H          5.80591        1.30406        0.88256
H          6.10163        3.38962       -1.16009
H          6.30733        3.47857        1.78164
H          4.78630        3.61929        0.87876
H          7.15986        5.59543        0.63884
H          5.77795        5.76967        1.69094
H          5.38647        7.20483       -0.17032
H          4.23624        5.85619       -0.38031
H          5.54279        7.61831       -3.15357
H          8.28632        2.24477        0.43095
H          8.29285        3.97891        0.00417
H          8.35964        3.55183       -2.35237
H          7.83449        1.87079       -2.16542
H         10.56793        2.88384       -1.18173
H         10.28193        2.14021       -2.75027
H         11.94007        0.86572       -1.47314
