78

C          2.13902        1.46468        0.94514
C          3.33198        0.54043        0.69258
C          3.46494        0.12616       -0.77718
C          4.71086       -0.73188       -1.04099
C          4.83386       -1.26521       -2.48346
C          4.18332       -2.66225       -2.71327
C          2.69573       -2.84018       -2.38481
C          2.40954       -3.20174       -0.91906
C          0.90343       -3.21920       -0.59808
C          0.65569       -3.37551        0.88491
C          0.56775       -2.24327        1.70824
C          0.39546       -2.37384        3.08767
C          0.30777       -3.64405        3.66407
C          0.38953       -4.77932        2.85323
C          0.56274       -4.64441        1.47358
N          4.34470       -2.96124       -4.21959
C          5.76008       -2.88963       -4.74488
C          6.34297       -1.52336       -4.36468
N          6.22800       -1.23727       -2.94618
C          7.21444       -1.94024       -2.10636
C          8.47695       -1.08214       -1.93742
C          9.69786       -1.78930       -1.34592
C          9.88786       -1.78420        0.22121
C          8.81630       -2.42837        1.18846
C          8.42020       -3.95858        1.12382
C          9.48653       -5.11388        1.29716
C         10.35232       -5.26064        2.61300
C          9.67942       -5.47127        4.03029
C          8.71361       -6.69607        4.24257
F          9.27271       -7.83443        3.80037
F          8.46157       -6.81387        5.55605
F          7.54398       -6.50497        3.60120
F         10.71521       -5.63041        4.89132
F          9.00435       -4.34313        4.36909
F         11.15879       -6.32737        2.38255
F         11.12931       -4.15356        2.72672
F          8.79079       -6.27195        1.13087
F         10.37156       -5.00689        0.27503
F          7.45367       -4.12524        2.05979
F          7.84538       -4.18140       -0.09934
F          9.22499       -2.16265        2.44804
F          7.63589       -1.75320        0.98345
F         11.08748       -2.34441        0.49936
F          9.93024       -0.46953        0.59308
F          9.77580       -3.08817       -1.78882
F         10.82108       -1.15095       -1.80802
H          2.05029        1.71921        2.00917
H          1.19230        0.99612        0.63683
H          2.23543        2.40619        0.38502
H          3.24007       -0.36509        1.31621
H          4.26097        1.03762        1.01665
H          3.51510        1.02604       -1.41384
H          2.54578       -0.40223       -1.07834
H          4.76927       -1.55423       -0.31083
H          5.59857       -0.10749       -0.86274
H          4.28962       -0.55530       -3.14021
H          4.78157       -3.43939       -2.21026
H          2.27908       -3.64740       -3.01654
H          2.14588       -1.92538       -2.66478
H          2.89436       -2.48620       -0.24367
H          2.84950       -4.18520       -0.68836
H          0.41032       -4.03104       -1.15657
H          0.45063       -2.27635       -0.94634
H          0.62078       -1.24760        1.26164
H          0.31829       -1.48277        3.71202
H          0.16671       -3.74836        4.74010
H          0.31107       -5.77325        3.29527
H          0.61647       -5.53723        0.84569
H          3.76021       -2.28118       -4.73104
H          3.93728       -3.88586       -4.41136
H          5.72309       -3.05091       -5.83067
H          6.30936       -3.71932       -4.28092
H          5.82651       -0.73159       -4.93590
H          7.39627       -1.49399       -4.67618
H          7.49373       -2.92120       -2.52701
H          6.76292       -2.14346       -1.13224
H          8.25586       -0.18550       -1.34422
H          8.81313       -0.72857       -2.92335
