66

C          1.34296        1.13799        2.32975
C          2.63108        0.87430        1.54578
C          2.95756        1.97098        0.52483
C          4.26905        1.72792       -0.22939
C          4.60095        2.81865       -1.25499
C          5.95992        2.59535       -1.93348
C          6.27958        3.69196       -2.95199
S          7.97591        3.38571       -3.58650
C          8.16859        4.72874       -4.65087
N          7.32095        5.65048       -5.04330
N          8.03433        6.50983       -5.87540
C          9.24164        6.04384       -5.94507
O          9.43081        4.91469       -5.18690
C         10.38674        6.58192       -6.72242
N         11.57333        6.70963       -5.77753
C         12.83181        7.29821       -6.42568
C         13.14306        6.42289       -7.64002
N         11.99473        6.37828       -8.53213
C         10.81633        5.73777       -7.94670
C          9.67347        5.66658       -8.97850
C          8.96953        4.32484       -9.08285
C          9.65587        3.02665       -9.01891
O          8.89364        3.51488       -7.89536
C         12.62465        8.78305       -6.64222
C         12.82171        9.40364       -7.88031
C         12.70558       10.78693       -8.01979
C         12.37848       11.56845       -6.91255
C         12.15966       10.97714       -5.66603
C         12.28046        9.59289       -5.53429
O         12.06582        8.91327       -4.34687
C         11.77649        9.67602       -3.15815
H          1.13348        0.32793        3.04135
H          0.47547        1.22237        1.65879
H          1.40845        2.07445        2.90330
H          2.55397       -0.09439        1.02396
H          3.47510        0.77148        2.24866
H          3.00993        2.94535        1.04159
H          2.12678        2.05629       -0.19731
H          4.22356        0.75001       -0.73908
H          5.09556        1.65110        0.49849
H          4.60066        3.80337       -0.75699
H          3.80734        2.86164       -2.01994
H          5.96954        1.61218       -2.43153
H          6.74807        2.56466       -1.16281
H          6.26763        4.69135       -2.49749
H          5.58741        3.68286       -3.80371
H         10.13702        7.59978       -7.05088
H         11.78291        5.77854       -5.38908
H         11.35168        7.34518       -4.98121
H         13.61446        7.14969       -5.66409
H         13.44782        5.42026       -7.26382
H         14.01159        6.83652       -8.16864
H         12.23263        5.93923       -9.42043
H         11.03818        4.71575       -7.56700
H         10.07600        5.92581       -9.97029
H          8.91929        6.43778       -8.75894
H          8.03209        4.36372       -9.64864
H         10.73978        2.98133       -8.86246
H          9.22588        2.16276       -9.53257
H         13.05870        8.79659       -8.75218
H         12.86790       11.24922       -8.99247
H         12.28640       12.65010       -7.01130
H         11.89937       11.59834       -4.81149
H         11.67410        8.93983       -2.35482
H         10.83777       10.23737       -3.26924
H         12.60552       10.35933       -2.92809
