95

C          0.58116        0.51519        0.41858
C          2.10801        0.43034        0.34313
C          2.60949       -0.63914       -0.63350
C          4.13638       -0.72663       -0.72338
C          4.63514       -1.78033       -1.71752
C          6.16217       -1.86203       -1.81170
C          6.66403       -2.87598       -2.84484
C          8.19166       -2.95239       -2.93483
C          8.70122       -3.92228       -4.00567
C         10.22940       -3.99735       -4.08384
C         10.75001       -4.93069       -5.18147
C         12.27829       -5.02520       -5.22495
C         12.81580       -5.93849       -6.33119
C         14.34230       -6.06613       -6.31994
C         14.90207       -6.96186       -7.42961
C         16.42569       -7.11109       -7.36723
C         17.00804       -8.00247       -8.46964
C         18.52879       -8.15909       -8.36439
C         19.12624       -9.04091       -9.46475
C         20.66331       -9.17711       -9.32206
C         21.25873      -10.05292      -10.37972
C         21.72016       -9.51549      -11.58180
C         22.23574      -10.30893      -12.60919
C         22.26795      -11.69971      -12.38792
C         21.80531      -12.21365      -11.19946
N         21.30897      -11.41177      -10.21589
C         20.89138      -12.06977       -8.93752
C         22.00355      -12.09243       -7.92549
C         21.86240      -11.66992       -6.66800
C         22.76096       -9.71938      -13.89876
C         22.46647       -8.25230      -14.11067
C         23.45909       -7.30689      -13.81759
C         23.22461       -5.94012      -13.97599
C         21.97961       -5.50945      -14.43598
C         20.98719       -6.44514      -14.73420
C         21.20391       -7.82184      -14.57957
C         20.10707       -8.79940      -14.92475
H          0.25323        1.28990        1.12553
H          0.14387       -0.43989        0.74644
H          0.14593        0.75577       -0.56303
H          2.51644        0.22486        1.34728
H          2.51761        1.41116        0.04713
H          2.19664       -0.43562       -1.63768
H          2.20356       -1.62260       -0.33654
H          4.54974       -0.94314        0.27764
H          4.54126        0.26080       -1.00799
H          4.22027       -1.56090       -2.71732
H          4.23241       -2.76935       -1.43594
H          6.57653       -2.11419       -0.81950
H          6.56447       -0.86378       -2.05980
H          6.25322       -2.61686       -3.83675
H          6.26095       -3.87569       -2.60451
H          8.60084       -3.24491       -1.95157
H          8.59394       -1.94422       -3.13895
H          8.29931       -3.62162       -4.98946
H          8.29549       -4.93081       -3.81061
H         10.62758       -4.32573       -3.10728
H         10.63574       -2.98329       -4.24711
H         10.37520       -4.58654       -6.16175
H         10.32644       -5.94026       -5.03513
H         12.64626       -5.38414       -4.24728
H         12.70289       -4.01348       -5.35137
H         12.48495       -5.55873       -7.31393
H         12.36559       -6.94179       -6.22860
H         14.66448       -6.45955       -5.33959
H         14.79314       -5.06147       -6.40246
H         14.61185       -6.55374       -8.41355
H         14.43415       -7.96005       -7.36606
H         16.70928       -7.52053       -6.38168
H         16.89289       -6.11238       -7.42388
H         16.74870       -7.58398       -9.45750
H         16.53243       -8.99809       -8.42636
H         18.78546       -8.58333       -7.37787
H         19.00482       -7.16427       -8.39866
H         18.89737       -8.61957      -10.45684
H         18.65281      -10.03738       -9.44329
H         20.92542       -9.53645       -8.31845
H         21.11858       -8.18198       -9.42265
H         21.66971       -8.43411      -11.71182
H         22.65065      -12.38433      -13.14489
H         21.80724      -13.28041      -10.98217
H         20.59013      -13.09001       -9.21485
H         20.00055      -11.56059       -8.55501
H         22.94993      -12.52497       -8.26300
H         20.92545      -11.24466       -6.30129
H         22.67725      -11.74995       -5.94931
H         22.37796      -10.33270      -14.73114
H         23.85310       -9.88157      -13.90404
H         24.43614       -7.64987      -13.46876
H         24.01149       -5.22001      -13.75130
H         21.78173       -4.44597      -14.57292
H         20.01903       -6.10307      -15.10529
H         19.21415       -8.27314      -15.28172
H         19.80314       -9.41158      -14.06085
H         20.41512       -9.49690      -15.71912
