60

C          1.10701       -1.03532        0.38716
C          2.43796       -0.33780        0.09791
C          3.02285        0.37637        1.32234
C          4.35607        1.07700        1.02866
C          4.91908        1.75301        2.26468
O          6.16503        2.43975        1.89387
C          7.17051        2.41331        2.77470
O          7.13102        1.89119        3.87751
C          8.41344        3.11121        2.20635
C          8.89438        4.27431        3.04373
C          8.79309        5.55513        2.54266
C          9.23559        6.69805        3.26781
C          9.10835        8.09701        2.70155
C          8.65933        8.16129        1.23994
O          9.26991        7.54402        0.36671
N          7.56735        8.93615        1.00196
C          7.05798        9.22042       -0.33701
C          7.08089       10.71723       -0.65842
C          6.51001       11.03464       -2.04510
C          6.49550       12.53409       -2.35230
C          9.77719        6.53523        4.53210
C          9.90634        5.25255        5.10577
C          9.47046        4.09941        4.34811
C          9.62840        2.85101        4.94078
N         10.15248        2.73336        6.17736
C         10.55606        3.80257        6.95149
C         10.43656        5.06662        6.40237
N         11.10238        3.51436        8.17113
H          0.72237       -1.54708       -0.50501
H          0.34059       -0.31752        0.71485
H          1.21471       -1.78965        1.18083
H          2.30490        0.39213       -0.71789
H          3.16924       -1.07539       -0.27258
H          3.16078       -0.35495        2.13772
H          2.29262        1.11481        1.69683
H          4.22050        1.82463        0.23094
H          5.08998        0.34420        0.65539
H          5.14182        1.04281        3.07137
H          4.24273        2.52815        2.65543
H          8.19848        3.45922        1.19078
H          9.19603        2.33859        2.12583
H          8.39182        5.70041        1.54051
H         10.09930        8.57839        2.74033
H          8.45507        8.68744        3.36487
H          7.14901        9.43221        1.78239
H          6.03217        8.82515       -0.42454
H          7.69152        8.65340       -1.03233
H          8.11844       11.08262       -0.58506
H          6.50232       11.26555        0.10661
H          5.48532       10.63251       -2.11785
H          7.09981       10.50389       -2.81051
H          5.88093       13.08532       -1.62529
H          6.08498       12.73223       -3.35123
H          7.50936       12.95911       -2.31963
H         10.11674        7.40332        5.10036
H          9.30702        1.92362        4.47445
H         10.26131        1.79304        6.55361
H         10.75127        5.92974        6.98859
H         10.83077        2.66536        8.65536
H         11.29450        4.29623        8.78643
