63

F          3.57544        0.56655        0.92271
C          3.02989       -0.72071        1.08050
C          2.80890       -1.32678       -0.29520
N          4.06444       -1.29603       -1.05759
C          4.75040       -2.33595       -1.57562
N          4.15554       -3.44586       -2.03678
C          2.76656       -3.60117       -2.40156
O          2.09391       -4.22545       -1.32911
C          0.73245       -4.59758       -1.63545
C          0.24500       -5.53344       -0.54252
C         -1.22806       -5.92848       -0.69886
C         -1.65027       -7.02450        0.28676
C         -3.13552       -7.38685        0.20129
C         -3.53444       -8.55610        1.10831
C         -5.02693       -8.88776        1.04498
N          6.09572       -2.22895       -1.62756
C          7.08879       -2.82082       -2.58205
C          8.35751       -1.92794       -2.49934
C          8.38146       -0.56508       -3.22483
C          7.33525        0.44542       -2.72780
C          9.79448        0.02622       -3.10631
C          7.51246       -4.21981       -2.08466
O          6.38076       -5.10502       -2.09711
C          6.53756       -2.89140       -4.01471
H          2.07714       -0.62584        1.62108
H          3.74257       -1.30733        1.67940
H          2.04149       -0.75265       -0.83591
H          2.46090       -2.36447       -0.19400
H          4.57124       -0.41545       -0.99548
H          4.77763       -4.26547       -2.09545
H          2.72001       -4.23362       -3.30684
H          2.33987       -2.61221       -2.65250
H          0.70203       -5.09607       -2.62219
H          0.10665       -3.68673       -1.69972
H          0.40137       -5.05083        0.43612
H          0.87851       -6.43508       -0.55047
H         -1.41292       -6.28028       -1.72873
H         -1.86700       -5.03932       -0.56152
H         -1.40963       -6.70594        1.31624
H         -1.04177       -7.92689        0.10059
H         -3.39250       -7.63562       -0.84365
H         -3.74297       -6.50091        0.45770
H         -3.25117       -8.32383        2.14907
H         -2.94588       -9.44625        0.82772
H         -5.64004       -8.03572        1.37451
H         -5.27621       -9.74313        1.68744
H         -5.33757       -9.14104        0.02032
H          6.48662       -1.52084       -1.01390
H          9.18873       -2.52773       -2.90086
H          8.60162       -1.77427       -1.43111
H          8.19138       -0.74606       -4.29589
H          7.42790        0.62100       -1.64236
H          6.30420        0.13384       -2.94704
H          7.48313        1.41739       -3.21687
H         10.05022        0.24319       -2.05776
H          9.87326        0.96634       -3.66785
H         10.55482       -0.66251       -3.50012
H          7.92293       -4.13405       -1.06484
H          8.29971       -4.60529       -2.75259
H          6.63178       -5.95445       -1.70312
H          6.11427       -1.93023       -4.32933
H          5.77117       -3.66429       -4.13276
H          7.35850       -3.14139       -4.69914
