34

F          0.95009       -0.93300       -1.53830
C          1.66341       -0.14536       -2.46878
C          2.85602        0.51450       -1.78883
C          3.74352       -0.42334       -0.95606
C          4.41047       -1.58280       -1.70339
O          3.49417       -2.51205       -2.23244
C          3.15806       -3.52222       -1.29532
N          4.30945       -4.36018       -0.99756
C          5.45031       -3.64374       -0.80147
N          6.60042       -4.26483       -0.56009
N          5.33075       -2.30087       -0.77957
N          4.51819       -5.69028       -1.77403
N          5.08098       -6.55058       -0.77479
N          3.36263       -6.20718       -2.29492
N          5.16020       -1.08813       -2.90134
O          6.16845       -0.24338       -2.33182
O          5.84652       -2.22228       -3.43525
H          0.96646        0.61211       -2.85459
H          1.96501       -0.81235       -3.28765
H          2.49195        1.29844       -1.10887
H          3.44524        1.02395       -2.56654
H          3.14278       -0.87717       -0.15411
H          4.52778        0.16425       -0.46060
H          2.36600       -4.12533       -1.74820
H          2.78581       -3.09106       -0.35315
H          6.54390       -5.28405       -0.43458
H          7.48484       -3.77541       -0.61523
H          6.13974       -1.75558       -0.48798
H          5.38647       -7.38226       -1.28776
H          4.36240       -6.84725       -0.09701
H          3.12422       -5.79985       -3.19591
H          2.56448       -6.33656       -1.66140
H          6.29436        0.44636       -3.00635
H          5.67089       -2.14819       -4.38935
