70

C          0.76158        3.66672        2.52718
C          2.27876        3.73416        2.71096
C          2.94972        4.67465        1.68198
C          4.44750        4.68159        1.83053
O          5.11849        5.52474        2.40264
O          4.99860        3.56472        1.26167
C          6.42723        3.43912        1.39161
C          6.80839        2.95711        2.79315
C          8.32115        2.77575        2.99368
O          8.62704        2.16360        4.25478
C          8.39626        3.03096        5.36192
C          9.30221        4.26738        5.32725
N          8.97618        4.97698        4.00333
C          9.15818        4.05286        2.82245
C          9.57328        6.38464        3.83502
C         10.86224        6.40179        2.99778
O         11.47336        7.64256        3.31521
C          8.48857        7.31363        3.28175
C          7.27833        7.48584        4.20339
C         10.80898        4.02759        5.49450
C         11.18783        3.30529        6.81399
O         10.17033        3.44596        7.83520
C         10.15297        4.62707        8.51778
O         10.88381        5.56342        8.27037
C          9.05793        4.61081        9.55619
S          7.44462        4.99074        8.76404
C         11.39495        1.79988        6.60221
O         11.47144        1.08067        7.84279
C         12.60965        1.26663        8.57707
O         13.56955        1.89624        8.18514
C         12.47732        0.62667        9.93818
S         11.63732        1.77500       11.09653
H          0.30785        2.99860        3.27111
H          0.49689        3.28450        1.53090
H          0.29624        4.65623        2.64048
H          2.71045        2.72662        2.60955
H          2.52102        4.08416        3.72691
H          2.59399        5.70447        1.81592
H          2.69425        4.34318        0.66477
H          6.88071        4.41433        1.15763
H          6.71724        2.71307        0.62080
H          6.33527        1.98412        2.98622
H          6.38410        3.66561        3.51986
H          8.69420        2.06082        2.24355
H          8.59002        2.45453        6.27128
H          7.34086        3.35510        5.41318
H          8.94799        4.96189        6.10375
H          7.96044        5.16288        4.06490
H         10.22032        3.79826        2.75833
H          8.87146        4.60550        1.92003
H          9.84244        6.70130        4.85465
H         10.62484        6.33100        1.92058
H         11.52173        5.55577        3.25971
H         12.23330        7.78359        2.72963
H          8.16596        6.96086        2.28674
H          8.97827        8.28357        3.11687
H          6.69171        6.56104        4.33746
H          6.57126        8.20206        3.76817
H          7.57575        7.85856        5.19346
H         11.32369        4.99609        5.48455
H         11.20644        3.42790        4.66201
H         12.11190        3.75179        7.20134
H          9.27136        5.34168       10.34179
H          8.95151        3.61063        9.99253
H          7.65713        6.32235        8.63660
H         12.31827        1.65806        6.02035
H         10.55645        1.33743        6.06697
H         13.46620        0.35897       10.32310
H         11.83511       -0.26090        9.89834
H         12.64330        2.68041       11.15381
