22

Br         5.35966       -2.23596       -2.02910
C          4.92735       -1.42755       -0.38508
C          3.86931       -1.77220        0.36050
C          2.88701       -2.86375        0.09213
N          1.47222       -2.31918       -0.02724
C          1.28689       -1.49265       -1.29130
C          0.01718       -0.71020       -1.24399
C         -1.01643       -0.78873       -2.09160
Br        -1.10248       -1.99658       -3.53341
Br        -0.07262        0.53997        0.19892
C          0.43540       -3.39237        0.11494
Br         3.54626       -0.83197        1.99283
H          5.62869       -0.64986       -0.08859
H          2.87125       -3.58474        0.92134
H          3.12501       -3.39116       -0.84120
H          1.35463       -1.64939        0.76214
H          1.29042       -2.18582       -2.14277
H          2.16007       -0.82827       -1.35486
H         -1.89153       -0.14635       -2.01338
H          0.57253       -4.12709       -0.68605
H         -0.55558       -2.93415        0.03734
H          0.55400       -3.86861        1.09378
