55

C          4.75585       10.33064        0.90980
C          4.42627        8.86870        0.59618
C          4.58408        7.94444        1.81018
C          4.22506        6.47682        1.54369
N          5.09641        5.84142        0.55023
C          6.14521        5.05384        0.88351
O          6.48333        4.77967        2.03369
C          6.90422        4.45397       -0.32165
N          8.33988        4.34586       -0.05515
C          8.97911        3.15569       -0.12535
N         10.23451        3.05500       -0.56732
C         11.11205        1.90962       -0.23591
O         10.36989        0.81051        0.23205
C          9.05939        0.81352       -0.31588
N          8.31125        1.98335        0.15233
C          7.65337        1.86358        1.46574
C          8.58045        2.25241        2.62541
O          9.59724        2.90727        2.48409
O          8.07323        1.81362        3.77609
C          8.78738        2.18372        5.00757
C          9.87546        1.17844        5.33352
C          9.05736        5.63375       -0.03614
C         10.27939        5.65310        0.88949
O         11.39335        5.31969        0.51385
O          9.96591        6.09154        2.10350
C         11.03860        6.07044        3.08828
H          4.63266       10.96768        0.02417
H          5.79324       10.44120        1.25867
H          4.09880       10.72618        1.69765
H          5.07886        8.52409       -0.22556
H          3.39254        8.79634        0.21676
H          3.93447        8.29814        2.62737
H          5.61624        7.99320        2.19497
H          3.18884        6.38988        1.18363
H          4.31786        5.88562        2.46321
H          4.93688        6.04908       -0.43018
H          6.76459        5.05995       -1.23347
H          6.50919        3.45243       -0.53564
H         10.74945        3.92347       -0.75016
H         11.80403        2.20347        0.56705
H         11.67549        1.66291       -1.15327
H          8.56317       -0.09569        0.03529
H          9.08279        0.83044       -1.41832
H          7.29601        0.83401        1.57845
H          6.78140        2.52694        1.54187
H          7.99582        2.19535        5.76564
H          9.18432        3.19880        4.87652
H          9.46397        0.16488        5.42281
H         10.33341        1.44242        6.29700
H         10.66538        1.17763        4.57166
H          8.34084        6.38457        0.31729
H          9.39038        5.91486       -1.04966
H         10.65221        6.63378        3.94130
H         11.94056        6.53890        2.67836
H         11.24319        5.02897        3.36539
