45

C          1.70100        0.09626        0.72875
C          2.68877       -0.14532       -0.41531
C          3.42755        1.13302       -0.83927
C          4.39520        0.86376       -1.98012
O          5.01257        2.11403       -2.45816
C          6.17185        2.47084       -1.90811
O          6.80972        1.87156       -1.06598
C          6.63184        3.81314       -2.48971
N          7.96561        4.07630       -1.98223
C          8.76979        5.04701       -2.41145
N          8.34353        6.00537       -3.25113
N         10.08155        5.04283       -2.04645
C         10.76374        3.87236       -1.47665
C         10.57829        3.76752        0.05535
O          9.42298        3.88268        0.46626
C         11.72363        3.51954        0.95030
C         13.05044        3.38680        0.49048
C         14.08548        3.14800        1.39231
C         13.81069        3.04466        2.75934
C         12.49649        3.17599        3.22811
C         11.45963        3.40775        2.33307
N         10.79258        6.22735       -2.29902
H          1.18931       -0.83294        1.01136
H          0.93002        0.82698        0.44437
H          2.21120        0.48048        1.62384
H          2.15253       -0.56172       -1.28408
H          3.42394       -0.90955       -0.11417
H          3.98036        1.54583        0.01991
H          2.69991        1.89744       -1.15626
H          3.88183        0.47576       -2.86869
H          5.19868        0.17572       -1.68697
H          5.90162        4.58207       -2.17937
H          6.62569        3.76123       -3.58828
H          8.22905        3.59715       -1.10568
H          7.35748        6.22867       -3.30595
H          9.01919        6.73774       -3.45772
H         11.80865        3.93020       -1.80001
H         10.33231        2.95863       -1.91690
H         13.29177        3.45970       -0.57001
H         15.10803        3.04185        1.03043
H         14.62312        2.85995        3.46306
H         12.28740        3.09412        4.29481
H         10.43033        3.50772        2.67697
H         11.60624        6.02733       -2.88544
H         11.10916        6.64366       -1.41939
