55

C          2.51745       -0.83402        1.03638
C          1.08010       -0.46886        0.77548
C          0.03105       -1.24248        1.30534
C         -1.30197       -0.92817        1.04561
C         -1.62045        0.17951        0.25509
C         -0.59048        0.95971       -0.28116
C          0.74822        0.63335       -0.02178
C         -0.92869        2.14412       -1.15914
N         -0.27928        3.38855       -0.69663
N          0.74880        3.93313       -1.30899
N          1.17172        4.95196       -0.58547
C          0.38725        5.04411        0.51304
N         -0.52705        4.04494        0.46297
C         -1.61885        3.72277        1.39456
C         -2.92933        4.44021        1.04779
C         -3.84196        4.53709        2.29133
C         -3.23617        5.40310        3.37459
C         -2.58247        4.83480        4.47978
C         -1.97152        5.63980        5.44663
C         -2.01964        7.03114        5.32955
C         -2.68243        7.61053        4.24139
C         -3.27569        6.80287        3.26843
C          0.43003        6.12868        1.50881
C          0.04488        7.55596        0.85511
N          1.11567        8.13845        0.06796
N         -1.16151        7.32897        0.04666
N         -0.29173        8.49105        1.90003
H          2.81295       -1.70186        0.42735
H          2.67448       -1.11103        2.08719
H          3.19803       -0.00987        0.79035
H          0.26791       -2.10647        1.92892
H         -2.09886       -1.54602        1.46028
H         -2.66396        0.42363        0.04478
H          1.55141        1.23699       -0.45307
H         -2.01078        2.32435       -1.20832
H         -0.54965        2.03613       -2.18455
H         -1.25459        4.04940        2.37819
H         -1.71306        2.62948        1.42511
H         -3.45063        3.91062        0.23585
H         -2.68696        5.45300        0.68867
H         -4.05651        3.53153        2.68555
H         -4.80509        4.95697        1.96753
H         -2.57011        3.74824        4.59930
H         -1.47539        5.17953        6.30196
H         -1.56240        7.66184        6.09251
H         -2.75017        8.69620        4.15668
H         -3.78363        7.26745        2.42082
H          1.44080        6.20547        1.93050
H         -0.27657        5.92164        2.32252
H          1.29985        7.60483       -0.78139
H          1.99396        8.19457        0.58739
H         -0.91148        7.02371       -0.89742
H         -1.61603        8.23912       -0.05252
H          0.47133        9.12154        2.12789
H         -0.69029        8.07116        2.73714
