41

C          2.03273        2.30576        1.31127
C          2.85822        1.30098        1.01656
C          3.36222        0.99424       -0.37796
C          4.84540        0.82293       -0.42395
N          5.41790       -0.34675       -0.45651
N          6.77832       -0.12489       -0.41391
C          7.05230        1.18291       -0.34433
N          8.24942        1.76540       -0.30505
N          5.83405        1.83688       -0.35345
C          5.74124        3.27473       -0.28662
O          6.73583        3.95065       -0.11307
O          4.49702        3.66861       -0.43419
C          4.24495        5.12765       -0.31145
C          4.40879        5.82347       -1.64477
C          7.72333       -1.25255       -0.34894
C          8.31583       -1.46504        1.04511
C          7.27977       -1.72911        2.14240
C          7.93751       -2.09932        3.47981
N          8.76313       -3.30248        3.33250
H          1.65848        2.45311        2.32385
H          1.67772        3.00060        0.54703
H          3.18106        0.60571        1.79730
H          3.03535        1.76158       -1.09064
H          2.95785        0.02638       -0.71287
H          9.09475        1.21104       -0.25931
H          8.26929        2.78029       -0.19333
H          4.92510        5.51629        0.45605
H          3.21393        5.15871        0.05794
H          5.44719        5.78651       -1.99718
H          4.13406        6.88030       -1.52293
H          3.74967        5.38985       -2.40750
H          8.50374       -1.08021       -1.10670
H          7.13680       -2.12097       -0.67360
H          8.94928       -0.60722        1.33215
H          8.99713       -2.32733        0.98641
H          6.61065       -2.54783        1.82572
H          6.63384       -0.84919        2.29778
H          7.14780       -2.18230        4.25000
H          8.59857       -1.27737        3.79852
H          8.18187       -4.14119        3.30444
H          9.39321       -3.41313        4.12584
