80

C          2.82829       -8.31153        3.54311
C          2.56917       -8.49095        2.06198
O          3.41200       -7.57006        1.26365
C          2.90545       -6.38008        0.97971
O          1.81444       -5.94724        1.32000
C          3.83695       -5.55811        0.06511
N          3.30222       -4.13664        0.12714
C          3.77683       -3.36406        1.36682
C          2.89124       -2.18949        1.67387
C          1.61126       -2.39023        2.21489
C          0.80035       -1.29909        2.52753
C          1.24063        0.01858        2.32315
C          2.52506        0.20928        1.78499
C          3.33863       -0.87568        1.46250
C          0.37128        1.19544        2.67645
C          3.49944       -3.33828       -1.14446
C          2.78098       -3.91332       -2.36151
C          1.26082       -4.06764       -2.21999
C          0.61501       -4.61250       -3.50006
C         -0.90217       -4.79797       -3.40141
C         -1.50921       -5.39487       -4.67551
C         -3.02813       -5.58163       -4.61519
C         -3.60671       -6.19992       -5.89212
C         -5.12801       -6.37169       -5.86268
C         -5.69189       -6.99997       -7.14094
C         -7.21466       -7.15508       -7.12426
C         -7.74884       -7.79248       -8.41426
N         -9.19611       -7.94317       -8.43675
C         -9.89572       -9.02401       -7.94363
C        -11.24815       -8.75361       -8.05855
C        -11.37239       -7.45910       -8.63653
C        -10.09188       -6.98232       -8.85491
C          5.33129       -5.68769        0.32820
H          2.24515       -9.06028        4.09677
H          2.51369       -7.31907        3.89015
H          3.88801       -8.46330        3.78463
H          1.52188       -8.30312        1.79606
H          2.87531       -9.48034        1.70415
H          3.62003       -5.90664       -0.95657
H          2.28299       -4.27873        0.28257
H          4.81172       -3.05768        1.17282
H          3.76797       -4.09107        2.18939
H          1.24952       -3.40303        2.41099
H         -0.18854       -1.47210        2.95599
H          2.89645        1.22349        1.62590
H          4.34021       -0.69836        1.06322
H         -0.55317        0.88023        3.17464
H          0.09415        1.76312        1.77558
H          0.90063        1.89170        3.34213
H          4.58391       -3.26656       -1.30625
H          3.12253       -2.33379       -0.90929
H          3.23245       -4.87110       -2.66951
H          3.00094       -3.22002       -3.18916
H          0.81420       -3.09252       -1.96109
H          1.01095       -4.75153       -1.38765
H          1.08270       -5.57968       -3.75501
H          0.84747       -3.93359       -4.33817
H         -1.37833       -3.82600       -3.18566
H         -1.13793       -5.45114       -2.54283
H         -1.03154       -6.36907       -4.88060
H         -1.25753       -4.74840       -5.53423
H         -3.51018       -4.60612       -4.42921
H         -3.28633       -6.21842       -3.75091
H         -3.13227       -7.18157       -6.06698
H         -3.32918       -5.57202       -6.75690
H         -5.60358       -5.38913       -5.69901
H         -5.41066       -6.99372       -4.99560
H         -5.22309       -7.98766       -7.29693
H         -5.39566       -6.38430       -8.00857
H         -7.69252       -6.17155       -6.98777
H         -7.52280       -7.77347       -6.26573
H         -7.30151       -8.78829       -8.55743
H         -7.45740       -7.18416       -9.28455
H         -9.37184       -9.89664       -7.56614
H        -12.05539       -9.42100       -7.77375
H        -12.29333       -6.93958       -8.88190
H         -9.74154       -6.04889       -9.28441
H          5.60229       -5.43860        1.36082
H          5.91215       -5.05672       -0.35721
H          5.62512       -6.72782        0.14915
