86

N          8.23061       -2.15659       -4.32808
C          8.06728       -2.64842       -2.94007
C          8.80512       -1.76516       -1.92479
C          8.51782       -0.26011       -2.03712
C          7.03811        0.11139       -1.85193
C          6.66375        1.53050       -2.30882
C          6.96542        1.82984       -3.77893
O          6.41166        3.11037       -4.09135
C          6.89149        3.61148       -5.34090
C          6.38515        5.03700       -5.50983
O          7.10349        5.84543       -4.61195
C          6.59703        7.18297       -4.49879
C          7.36034        7.88255       -3.38652
C          6.91379        9.33146       -3.16035
C          7.63659        9.99200       -1.98072
C          7.21495       11.44265       -1.72721
C          7.91140       12.07453       -0.51716
C          7.49575       13.52523       -0.25385
C          8.17370       14.14800        0.97187
C          7.75140       15.59724        1.22736
C          6.43133        2.69463       -6.47513
N          6.79740        1.26844       -6.18274
C          6.44919        0.78564       -4.78206
C          4.93919        0.50953       -4.70534
C          4.42719       -0.35407       -5.85851
O          5.06505       -0.39457       -6.94776
N          3.29091       -1.05139       -5.69114
C          2.81136       -1.94416       -6.76854
C          1.62804       -1.37987       -7.56422
C          1.92685       -0.08424       -8.32782
C          0.73621        0.39352       -9.16324
C          2.49946       -1.00972       -4.45950
H          7.79583       -2.81912       -4.97324
H          9.22488       -2.15971       -4.57123
H          8.41548       -3.68864       -2.81077
H          6.98710       -2.65810       -2.72410
H          9.89050       -1.92389       -2.03633
H          8.55262       -2.12820       -0.91569
H          8.87466        0.08178       -3.02068
H          9.12621        0.27997       -1.29565
H          6.76442        0.00486       -0.79124
H          6.40946       -0.61993       -2.38591
H          7.20372        2.28321       -1.71551
H          5.59344        1.71557       -2.12810
H          8.06531        1.88458       -3.91646
H          8.00027        3.64433       -5.31377
H          5.29680        5.06299       -5.29667
H          6.52926        5.36320       -6.56214
H          5.51348        7.14781       -4.27056
H          6.71823        7.71338       -5.46394
H          8.43604        7.85392       -3.62421
H          7.22913        7.30158       -2.45918
H          5.82470        9.36102       -2.98089
H          7.08749        9.92242       -4.07625
H          8.72648        9.95308       -2.15317
H          7.45521        9.39637       -1.06866
H          6.12113       11.48531       -1.58090
H          7.42238       12.04765       -2.62731
H          9.00551       12.02827       -0.66025
H          7.70014       11.46674        0.38059
H          6.39963       13.57366       -0.12592
H          7.72103       14.13775       -1.14491
H          9.26872       14.09936        0.84511
H          7.94667       13.53548        1.86126
H          8.00129       16.24285        0.37197
H          8.25037       16.01329        2.11342
H          6.66589       15.67413        1.39107
H          6.89189        2.96356       -7.43471
H          5.33993        2.73331       -6.59437
H          7.79915        1.11855       -6.34214
H          6.19765        0.56822       -6.78570
H          7.00805       -0.16274       -4.66573
H          4.37145        1.45489       -4.67783
H          4.74481        0.01428       -3.74652
H          2.53332       -2.89628       -6.29180
H          3.66422       -2.13127       -7.43104
H          0.75913       -1.22997       -6.90042
H          1.32315       -2.16611       -8.27387
H          2.80359       -0.23996       -8.97668
H          2.21404        0.70676       -7.61413
H          0.45520       -0.35287       -9.91993
H          0.96814        1.32791       -9.69116
H         -0.14834        0.57760       -8.53611
H          2.45659        0.00101       -4.03939
H          2.89333       -1.70533       -3.70232
H          1.47342       -1.30954       -4.69750
