60

C          1.10637        0.09969        0.64213
C          2.62521       -0.04822        0.53402
C          3.04684       -1.32800       -0.19717
C          4.57037       -1.48988       -0.28998
C          4.95712       -2.76369       -1.01614
O          6.40927       -2.87263       -1.03640
C          6.85580       -4.01843       -1.70738
P          8.68893       -3.92998       -1.67779
C          9.25608       -3.74202        0.03963
C         10.77910       -3.65088        0.25051
C         11.43631       -2.37518       -0.31950
C         12.85840       -2.32701       -0.00929
C         14.03435       -2.31962        0.27256
C          9.44183       -5.34995       -2.52509
C          8.98120       -5.57103       -3.98381
C          9.35250       -4.46139       -4.97973
C         10.85892       -4.25165       -5.17029
C         11.17872       -3.18247       -6.22134
C         12.67285       -2.93297       -6.40599
O         13.31417       -2.52564       -5.16824
C         13.24123       -1.18925       -4.87215
O         12.65268       -0.37730       -5.56063
C         13.96876       -0.90446       -3.60985
C         14.05769        0.34410       -3.13731
H          0.83252        1.02285        1.16952
H          0.66203       -0.74226        1.19294
H          0.63625        0.13232       -0.35154
H          3.07103       -0.04433        1.54253
H          3.04753        0.82472        0.00935
H          2.61154       -1.32645       -1.21127
H          2.61436       -2.20078        0.32171
H          5.00599       -1.50690        0.72183
H          5.00922       -0.62721       -0.81592
H          4.59028       -2.75820       -2.05881
H          4.54552       -3.65514       -0.50865
H          6.52984       -4.06207       -2.76633
H          6.54641       -4.96675       -1.21928
H          9.01457       -2.75013       -2.38238
H          8.84353       -4.60857        0.58118
H          8.73223       -2.85079        0.42050
H         11.28293       -4.53985       -0.15607
H         10.95279       -3.67850        1.33544
H         10.93727       -1.48220        0.09427
H         11.30937       -2.31690       -1.41569
H         15.07376       -2.30346        0.52848
H          9.21112       -6.22866       -1.90143
H         10.53108       -5.19881       -2.46684
H          7.89504       -5.74743       -4.00324
H          9.44215       -6.51666       -4.30844
H          8.87863       -3.50472       -4.69388
H          8.89950       -4.72487       -5.94820
H         11.32301       -5.20917       -5.46398
H         11.33726       -3.96060       -4.21984
H         10.69035       -2.23019       -5.96263
H         10.77183       -3.48690       -7.19984
H         12.84052       -2.15873       -7.16604
H         13.20018       -3.85256       -6.69395
H         14.43043       -1.75120       -3.09983
H         13.59741        1.17306       -3.67783
H         14.59534        0.56583       -2.21603
