137

C         -0.38012       -0.38651        2.83148
C          1.07133       -0.10868        3.22772
C          1.87745       -1.37349        3.54830
C          3.33325       -1.06929        3.90648
C          4.19595       -2.28810        4.24923
C          5.64363       -1.88460        4.53810
C          6.60752       -3.02776        4.86932
C          8.02973       -2.49951        5.07089
C          9.10266       -3.53894        5.40465
C         10.47379       -2.86922        5.52363
C         11.62590       -3.78303        5.94820
C         12.91529       -2.98802        6.03998
O         13.95996       -3.82734        6.57792
C         15.12355       -3.10294        6.98377
C         15.95900       -3.98819        7.90164
O         16.57125       -5.09794        7.20908
C         15.67153       -6.17119        7.16639
N         14.58760       -5.86614        8.20198
C         15.15272       -4.69374        9.00946
C         14.06771       -3.89320        9.71820
C         14.66038       -2.87846       10.71151
C         13.70226       -1.72048       11.00313
S         13.70056       -0.45936        9.68809
C         11.97529       -0.41770        9.12503
S         10.93246       -1.70447        9.34500
N         11.66409        0.74904        8.51985
C         12.63471        1.85053        8.37945
C         12.72317        2.76285        9.61331
C         14.01475        3.58670        9.62785
C         14.19797        4.38578       10.92240
C         15.55657        5.08595       11.02590
C         15.77227        5.79769       12.36541
C         17.15518        6.44199       12.51043
C         17.36540        7.12178       13.86564
C         10.27921        1.06004        8.12316
C         10.01186        1.03218        6.61461
C          8.55472        1.41371        6.32560
C          8.18399        1.45572        4.83967
C          6.73350        1.89752        4.61304
C          6.27670        1.84918        3.15246
C          4.85043        2.37392        2.94852
C          4.34380        2.22462        1.51245
C         14.15060       -7.04040        9.01443
C         13.44412       -8.11786        8.19151
O         13.18426       -9.13750        9.12050
C         12.50220      -10.28354        8.57595
C         12.39273      -11.32215        9.67914
C         11.63695      -12.58544        9.25264
C         11.56779      -13.63359       10.37036
C         10.80015      -14.89642        9.97442
H         -0.92425        0.54342        2.61657
H         -0.92105       -0.90876        3.63467
H         -0.43607       -1.01904        1.93299
H          1.09230        0.56157        4.10414
H          1.57703        0.44385        2.41707
H          1.84613       -2.05747        2.68183
H          1.39372       -1.91642        4.37940
H          3.35674       -0.36515        4.75751
H          3.80127       -0.53270        3.06345
H          4.17007       -3.00860        3.41290
H          3.77060       -2.81591        5.12054
H          5.65383       -1.15907        5.37085
H          6.03698       -1.33448        3.66519
H          6.59694       -3.77399        4.05600
H          6.26818       -3.55655        5.77672
H          8.01672       -1.74117        5.87336
H          8.33461       -1.95974        4.15672
H          9.12740       -4.32267        4.62802
H          8.85117       -4.04556        6.35240
H         10.39909       -2.05788        6.26614
H         10.72212       -2.38881        4.56124
H         11.74600       -4.62079        5.24154
H         11.40237       -4.20949        6.94146
H         12.77798       -2.12358        6.71331
H         13.22908       -2.61174        5.04998
H         14.83272       -2.18618        7.53101
H         15.73186       -2.80913        6.11017
H         16.78555       -3.39807        8.31817
H         16.18658       -7.10103        7.44744
H         15.17557       -6.27060        6.18873
H         13.80535       -5.43680        7.66525
H         15.85720       -5.14149        9.72771
H         13.39585       -4.56851       10.26875
H         13.43564       -3.37377        8.98388
H         15.61243       -2.47024       10.33628
H         14.90482       -3.38520       11.65823
H         14.00210       -1.18964       11.91577
H         12.65835       -2.05952       11.10650
H         12.34189        2.42349        7.48815
H         13.62194        1.42368        8.14956
H         12.69141        2.13441       10.51646
H         11.84255        3.42303        9.65635
H         14.04528        4.26635        8.75893
H         14.87039        2.89836        9.50818
H         14.08202        3.70047       11.78072
H         13.38781        5.12898       11.01790
H         15.66630        5.80944       10.19947
H         16.35772        4.33903       10.88149
H         15.62344        5.07388       13.18663
H         14.99388        6.56880       12.50163
H         17.30312        7.17570       11.70026
H         17.93005        5.67041       12.36238
H         16.62800        7.92123       14.03075
H         18.36464        7.57224       13.94049
H         17.26270        6.40292       14.69233
H         10.05658        2.06344        8.52085
H          9.62867        0.34210        8.63702
H         10.22941        0.02687        6.22382
H         10.68804        1.72793        6.09044
H          8.34701        2.40142        6.77388
H          7.88667        0.70461        6.84462
H          8.34081        0.46029        4.39199
H          8.86528        2.14131        4.30630
H          6.60444        2.92252        5.00297
H          6.06360        1.26088        5.21667
H          6.33782        0.80889        2.78735
H          6.97395        2.42948        2.52270
H          4.80996        3.43497        3.24713
H          4.16852        1.84370        3.63300
H          4.97822        2.77238        0.79996
H          3.31880        2.60563        1.40628
H          4.33645        1.16903        1.20041
H         13.47083       -6.67712        9.79503
H         15.04403       -7.45803        9.49848
H         14.08359       -8.48103        7.35996
H         12.51187       -7.71464        7.74182
H         13.07356      -10.67519        7.71276
H         11.50349       -9.97631        8.21112
H         11.89039      -10.86057       10.54445
H         13.40916      -11.58834       10.01177
H         12.12095      -13.03016        8.36590
H         10.61307      -12.31799        8.93894
H         11.10055      -13.18068       11.26082
H         12.59331      -13.90401       10.67307
H          9.75771      -14.66524        9.70943
H         10.77877      -15.62419       10.79653
H         11.26048      -15.39076        9.10629
