69

C          1.18159        0.88618        0.77480
C          2.46786        0.15334        0.38648
C          2.96856        0.51147       -1.01808
C          4.24052       -0.24709       -1.41158
C          4.75741        0.13604       -2.78846
O          5.92005       -0.65170       -3.07297
C          6.49209       -0.37820       -4.33183
C          7.68927       -1.31274       -4.48638
C          8.42258       -1.16742       -5.82188
C          9.52989       -2.20930       -5.98475
N         10.39879       -1.66711       -7.09199
C         10.41448       -0.12488       -6.89115
C          9.16414        0.17563       -6.03357
C         11.82587        0.36668       -6.42544
C         12.38117       -0.30556       -5.10807
C         13.87931       -0.01569       -4.88137
C         11.63415        0.03241       -3.80464
C         12.79672        0.06983       -7.60081
O         12.98581       -1.35056       -7.81177
C         11.73818        1.90174       -6.31508
C          9.95480       -2.07561       -8.46973
C         10.24574       -3.54933       -8.75146
O          9.85781       -3.74526      -10.09361
C         10.01248       -5.08390      -10.53571
C          9.50442       -5.16681      -11.97342
F          8.19608       -4.83553      -12.06307
F         10.19581       -4.34825      -12.79855
F          9.64991       -6.43801      -12.41834
H          0.85154        0.60717        1.78440
H          0.36127        0.65027        0.08071
H          1.32209        1.97725        0.76115
H          2.30555       -0.93633        0.44604
H          3.25954        0.38000        1.12062
H          3.15165        1.59918       -1.07112
H          2.17097        0.30246       -1.75246
H          4.05014       -1.33250       -1.39797
H          5.03585       -0.05903       -0.67204
H          5.01925        1.21233       -2.82621
H          3.98758       -0.04522       -3.56494
H          6.80330        0.68621       -4.39792
H          5.75933       -0.55208       -5.14856
H          7.32515       -2.34617       -4.37351
H          8.38696       -1.13384       -3.65153
H          7.69052       -1.30695       -6.63574
H          9.17422       -3.21247       -6.24293
H         10.15289       -2.27861       -5.08316
H         11.39245       -1.96771       -7.01800
H         10.27080        0.28673       -7.89925
H          8.52707        0.90869       -6.54101
H          9.43986        0.61240       -5.06900
H         12.30931       -1.40049       -5.24609
H         14.07882        1.05846       -4.76310
H         14.53208       -0.39036       -5.68062
H         14.20613       -0.50545       -3.95551
H         11.62592        1.11247       -3.60300
H         12.15022       -0.44473       -2.96115
H         10.59908       -0.32355       -3.77623
H         13.76199        0.56332       -7.43598
H         12.37952        0.47891       -8.53453
H         13.88961       -1.59525       -7.56330
H         11.00822        2.22396       -5.56321
H         11.44341        2.35037       -7.27487
H         12.70912        2.33109       -6.03850
H         10.51328       -1.46409       -9.18830
H          8.88521       -1.85590       -8.57866
H          9.67702       -4.21954       -8.07759
H         11.32585       -3.75800       -8.60796
H          9.42027       -5.78800       -9.92436
H         11.07098       -5.39857      -10.52783
