62

C          2.74034        2.14368        0.82856
C          4.00042        1.43242        0.32428
C          3.82057        0.09657       -0.42792
C          3.42620        0.13982       -1.92788
O          4.10204        1.17100       -2.69130
C          3.30877        2.31313       -2.76412
N          1.86206        1.85605       -2.51703
C          1.95628        0.33636       -2.35135
C          0.85297       -0.21838       -1.45986
C          0.84623       -1.75624       -1.42585
C         -0.18496       -2.29669       -0.43156
C         -0.25289       -3.83299       -0.42218
N         -1.15244       -4.34426        0.59416
C         -0.79082       -4.65099        1.89055
C         -1.93787       -4.96223        2.59573
C         -3.03526       -4.83112        1.69913
C         -2.52419       -4.44328        0.47478
C          0.87044        2.34224       -3.54650
C          0.63968        3.85356       -3.44494
C         -0.38894        4.30267       -4.46197
C          0.00760        4.67625       -5.75379
C         -0.94181        5.06481       -6.70103
C         -2.29818        5.08297       -6.36513
C         -2.70135        4.71317       -5.07941
C         -1.75132        4.32392       -4.13279
C          5.11990       -0.72134       -0.31077
O          4.86826       -2.02035       -0.85032
H          3.01128        2.97016        1.49821
H          2.08683        1.46460        1.39357
H          2.12407        2.60700        0.03865
H          4.60856        1.20608        1.21363
H          4.62542        2.11622       -0.27113
H          3.04951       -0.49952        0.08996
H          3.77311       -0.80977       -2.35810
H          3.38259        2.74885       -3.76971
H          3.54488        3.07112       -1.99901
H          1.57408        2.23716       -1.60260
H          1.85599       -0.05857       -3.37385
H         -0.12739        0.12781       -1.82614
H          0.96244        0.17737       -0.43768
H          1.84583       -2.13598       -1.15931
H          0.63423       -2.13749       -2.43892
H         -1.18557       -1.89658       -0.66165
H          0.06108       -1.95274        0.58607
H          0.74585       -4.25633       -0.23686
H         -0.58154       -4.20761       -1.40396
H          0.25238       -4.64394        2.19120
H         -1.97941       -5.27248        3.63462
H         -4.08099       -5.02033        1.91884
H         -3.01548       -4.24818       -0.47329
H         -0.06799        1.79822       -3.37403
H          1.26374        2.05031       -4.52997
H          1.58387        4.39676       -3.60641
H          0.29219        4.10129       -2.42789
H          1.06774        4.68023       -6.01932
H         -0.62143        5.36218       -7.69969
H         -3.03945        5.39219       -7.10214
H         -3.75712        4.73638       -4.80834
H         -2.07342        4.05061       -3.12486
H          5.40284       -0.78638        0.75353
H          5.93932       -0.21373       -0.85267
H          5.70062       -2.51557       -0.88325
