65

C          7.51480       -2.59130      -10.52016
C          6.80116       -2.48581       -9.17102
C          7.20171       -1.24001       -8.37485
C          6.50498       -1.12791       -7.01470
C          6.91178        0.12642       -6.23406
C          6.19976        0.31582       -4.88501
C          6.41042       -0.80350       -3.84854
C          7.87382       -1.10071       -3.49737
C          8.06888       -2.22452       -2.45287
C          9.41912       -1.93640       -1.76719
N          9.92834       -0.61584       -2.35886
C          8.67015        0.06398       -2.89751
C          8.01759        0.78279       -1.70724
O          9.06368        1.45818       -1.02456
C          8.61449        2.23893        0.10831
C          9.81355        2.88929        0.77367
C          9.40635        3.76533        1.96666
C         10.60656        4.43012        2.64347
C         11.13280       -0.79952       -3.29894
C         11.11256        0.17927       -4.48585
O         12.23495       -0.17596       -5.27973
C         12.42929       -0.65215       -2.49259
C         12.67873       -1.67505       -1.38123
H          7.21102       -3.49492      -11.06477
H          8.60676       -2.63176      -10.39152
H          7.28880       -1.72558      -11.15947
H          7.01404       -3.38565       -8.56908
H          5.71023       -2.47738       -9.32913
H          6.98056       -0.33860       -8.97233
H          8.29696       -1.24151       -8.22570
H          6.72564       -2.03632       -6.42666
H          5.41116       -1.12275       -7.16143
H          6.70741        1.01381       -6.85424
H          8.00854        0.12268       -6.09121
H          5.11678        0.40484       -5.06377
H          6.50566        1.28401       -4.45284
H          5.96327       -1.73862       -4.21838
H          5.85594       -0.55657       -2.92803
H          8.39540       -1.39902       -4.42234
H          8.05784       -3.21554       -2.92118
H          7.25746       -2.20545       -1.71280
H         10.17912       -2.70102       -1.94521
H          9.32302       -1.79540       -0.68439
H         10.23219        0.01176       -1.58944
H          8.97482        0.81996       -3.62751
H          7.49739        0.08076       -1.02759
H          7.26506        1.49212       -2.09348
H          8.07708        1.57657        0.81223
H          7.90139        3.00215       -0.25239
H         10.34994        3.49993        0.02950
H         10.51265        2.10612        1.11180
H          8.85974        3.15223        2.70196
H          8.69957        4.53937        1.62555
H         11.31633        3.68085        3.02291
H         10.28928        5.04713        3.49382
H         11.15037        5.08101        1.94361
H         11.04720       -1.81704       -3.70819
H         11.18106        1.22404       -4.12497
H         10.17999        0.06764       -5.06518
H         12.22573        0.35448       -6.09156
H         12.46292        0.37401       -2.08476
H         13.24259       -0.70775       -3.22879
H         11.95392       -1.60855       -0.55696
H         13.66914       -1.50445       -0.94080
H         12.66805       -2.70499       -1.76571
