106

C          1.57033       -1.96160        1.00769
C          3.05641       -1.61755        0.87897
C          3.54018       -1.54191       -0.57332
C          5.02846       -1.20558       -0.70958
C          5.50890       -1.10807       -2.16081
C          7.00409       -0.80381       -2.29260
C          7.47908       -0.66407       -3.74230
C          8.99728       -0.51427       -3.87396
C          9.48966       -0.36890       -5.31674
C         11.01496       -0.28271       -5.42670
C         11.52887       -0.13561       -6.86169
C         13.05676       -0.07474       -6.95217
C         13.58578        0.04790       -8.38407
C         15.11418       -0.00784       -8.47100
C         15.63612       -0.05894       -9.91202
C         17.14213       -0.36424       -9.96699
C         17.72740       -0.85301      -11.27934
O         17.21526       -0.19971      -12.37952
C         17.65475       -0.88580      -13.58894
C         18.05512       -2.30143      -13.10274
N         17.51537       -2.37840      -11.69565
C         16.10475       -2.93821      -11.61407
C         15.74983       -3.43435      -10.21540
C         14.23920       -3.66437      -10.05084
C         13.84259       -3.90697       -8.58999
C         12.32793       -3.97516       -8.37254
C         11.93574       -4.10683       -6.89715
C         10.42180       -4.14780       -6.66769
C         10.02687       -4.26210       -5.19209
C          8.51129       -4.28068       -4.96542
C          8.11693       -4.38375       -3.49071
C         18.76705       -0.12332      -14.29311
C         18.19233        1.10555      -15.03569
O         16.99024        1.14184      -15.26568
C         19.11161        2.18962      -15.46552
C         18.54202        3.34118      -16.04356
C         19.35268        4.38711      -16.47108
C         20.74353        4.29422      -16.33715
C         21.32079        3.15248      -15.77286
C         20.51030        2.10627      -15.33333
H          1.25590       -2.00513        2.05956
H          1.34583       -2.93832        0.55376
H          0.94135       -1.21254        0.50397
H          3.65673       -2.36663        1.42283
H          3.25572       -0.65369        1.37706
H          2.94336       -0.78772       -1.11641
H          3.33626       -2.50408       -1.07602
H          5.62427       -1.96928       -0.17870
H          5.23558       -0.25146       -0.19336
H          4.92768       -0.32981       -2.68631
H          5.28610       -2.05492       -2.68434
H          7.57893       -1.60533       -1.79634
H          7.24204        0.12165       -1.73953
H          6.98053        0.20302       -4.20961
H          7.14874       -1.54503       -4.31885
H          9.48713       -1.38915       -3.41139
H          9.33164        0.35878       -3.28627
H          9.03705        0.52950       -5.77175
H          9.12838       -1.22289       -5.91550
H         11.46213       -1.18412       -4.97156
H         11.37626        0.56755       -4.82215
H         11.09667        0.77275       -7.31603
H         11.16128       -0.98050       -7.47019
H         13.48185       -0.98238       -6.48755
H         13.42748        0.77153       -6.34868
H         13.21909        0.98284       -8.84006
H         13.16269       -0.76943       -8.99446
H         15.46491       -0.90598       -7.93046
H         15.55655        0.85051       -7.93839
H         15.43731        0.88897      -10.43197
H         15.05766       -0.81542      -10.45871
H         17.42927       -1.08378       -9.18244
H         17.70979        0.54896       -9.72697
H         18.83554       -0.81547      -11.22632
H         16.77177       -0.90547      -14.24158
H         19.14377       -2.42980      -13.04995
H         17.62817       -3.10449      -13.71189
H         18.12779       -2.96788      -11.11788
H         16.05636       -3.75623      -12.34574
H         15.43619       -2.14010      -11.96037
H         16.06466       -2.70070       -9.46123
H         16.30209       -4.36414       -9.99959
H         13.91084       -4.50605      -10.68224
H         13.70144       -2.77508      -10.42232
H         14.25600       -3.09225       -7.97063
H         14.31342       -4.83490       -8.22382
H         11.90899       -4.82107       -8.94413
H         11.86207       -3.06644       -8.79212
H         12.36664       -3.26246       -6.33140
H         12.39505       -5.01780       -6.47549
H          9.99003       -4.99529       -7.22832
H          9.96466       -3.23919       -7.09711
H         10.46731       -3.42018       -4.62991
H         10.47254       -5.17626       -4.76229
H          8.07004       -5.12244       -5.52567
H          8.07279       -3.36808       -5.40172
H          8.46470       -5.32897       -3.04843
H          7.02709       -4.33655       -3.36095
H          8.55407       -3.56487       -2.90148
H         19.24727       -0.77523      -15.04416
H         19.55328        0.16530      -13.57930
H         17.45771        3.38930      -16.14466
H         18.90401        5.27777      -16.91166
H         21.37883        5.11414      -16.67418
H         22.40404        3.07980      -15.67516
H         20.98007        1.22207      -14.90064
