106

C          0.34965       -0.32983       -0.31444
C          1.87699       -0.23505       -0.27026
C          2.56368       -1.59967       -0.13802
C          4.09290       -1.51586       -0.08507
C          4.77471       -2.88330        0.03528
C          6.30380       -2.80263        0.10492
C          6.98132       -4.17411        0.19836
C          8.50906       -4.10156        0.29992
C          9.17908       -5.47908        0.34487
C         10.70129       -5.42394        0.51608
C         11.36010       -6.80723        0.49757
C         12.87474       -6.78212        0.73054
C         13.51633       -8.17130        0.65330
C         15.02100       -8.18838        0.94505
C         15.63499       -9.58624        0.81542
C         17.11920       -9.66509        1.19044
C         17.69094      -11.07752        1.02826
C         19.14636      -11.23093        1.48458
C         19.64834      -12.66914        1.31791
C         21.06714      -12.87520        1.85677
C         21.57050      -14.29242        1.81330
N         20.78587      -15.16243        1.15760
N         21.17107      -16.41719        1.12744
C         22.26798      -16.94568        1.69765
C         23.11523      -16.07588        2.38135
C         22.78179      -14.71771        2.43649
C         23.69954      -13.75883        3.12524
C         25.16021      -13.87188        2.63227
O         25.62126      -14.84894        2.07728
O         25.81815      -12.75734        2.94697
C         27.25722      -12.73446        2.62374
C         27.85939      -11.50898        3.27937
C         29.36468      -11.40314        2.99890
C         30.01118      -10.18145        3.66314
C         31.51326      -10.07628        3.38994
C         22.31671      -18.44675        1.51362
O         21.33606      -19.01100        1.07341
C         23.53569      -19.26679        2.01647
C         23.88545      -20.55580        1.16814
C         23.95038      -20.38433       -0.40408
C         24.48251      -19.00177       -0.88338
O         23.90498      -17.98550       -0.55751
O         25.55238      -19.01583       -1.66852
F         24.74348      -21.38986       -0.89326
F         22.70928      -20.54009       -0.92496
F         25.11422      -20.95737        1.58708
F         22.98915      -21.52407        1.44682
F         24.65925      -18.50037        2.09925
F         23.22083      -19.67460        3.28150
H         -0.11296        0.66249       -0.40969
H         -0.04864       -0.79543        0.59947
H          0.01121       -0.93696       -1.16741
H          2.18289        0.40783        0.57248
H          2.24281        0.26811       -1.18130
H          2.26160       -2.24189       -0.98428
H          2.19369       -2.10655        0.77079
H          4.39435       -0.88088        0.76661
H          4.46267       -1.00207       -0.98981
H          4.48119       -3.51304       -0.82306
H          4.39590       -3.40268        0.93306
H          6.59733       -2.18898        0.97480
H          6.68319       -2.26765       -0.78333
H          6.70245       -4.77750       -0.68353
H          6.58458       -4.71898        1.07300
H          8.78721       -3.52849        1.20192
H          8.90749       -3.52907       -0.55598
H          8.93561       -6.03073       -0.58029
H          8.74343       -6.06986        1.16990
H         10.94324       -4.91357        1.46490
H         11.13909       -4.79970       -0.28260
H         11.14862       -7.29536       -0.47025
H         10.88734       -7.44581        1.26463
H         13.08499       -6.33367        1.71746
H         13.35073       -6.11683       -0.01110
H         13.33546       -8.59722       -0.34949
H         13.00520       -8.84698        1.36179
H         15.19974       -7.80084        1.96347
H         15.53898       -7.49338        0.26129
H         15.50133       -9.94555       -0.22017
H         15.06835      -10.28934        1.45137
H         17.24989       -9.33303        2.23530
H         17.69809       -8.95756        0.57172
H         17.60668      -11.38491       -0.02870
H         17.06353      -11.78598        1.59750
H         19.23103      -10.92789        2.54307
H         19.79252      -10.53976        0.91592
H         19.60892      -12.95802        0.25639
H         18.96315      -13.35745        1.83936
H         21.12443      -12.52688        2.90283
H         21.78522      -12.23956        1.30537
H         20.54416      -17.07313        0.63858
H         24.01803      -16.44663        2.85607
H         23.73135      -13.99016        4.20483
H         23.36902      -12.71929        3.04200
H         27.35024      -12.71564        1.52807
H         27.69988      -13.67112        2.99095
H         27.68335      -11.55734        4.36601
H         27.34397      -10.60708        2.91240
H         29.53620      -11.35954        1.90941
H         29.87118      -12.31877        3.35042
H         29.83416      -10.22566        4.75076
H         29.50481       -9.26755        3.31022
H         32.05156      -10.95843        3.76662
H         31.94569       -9.19182        3.87595
H         31.71977       -9.99713        2.31245
H         25.84921      -19.93821       -1.81716
