64

C          2.54906        7.50768        1.61708
O          3.30956        7.51490        2.81736
C          4.17694        6.40067        2.91437
C          4.83716        6.45139        4.28480
O          5.78252        5.38567        4.33825
C          6.46461        5.30910        5.57440
C          7.50310        4.21130        5.48186
O          8.46989        4.61101        4.50172
C          9.57699        3.75979        4.34525
C         10.36932        4.30359        3.15401
N         10.69573        5.73709        3.35349
C         11.87828        6.11996        3.83335
C         12.15294        7.45781        4.13596
C         13.45510        7.73091        4.63240
C         13.78262        9.01260        4.99005
C         12.80082       10.01361        4.88316
C         11.50302        9.81510        4.40636
C         11.13807        8.49243        3.96892
C          9.89757        8.01402        3.38381
C          9.72982        6.67432        3.10960
C          8.69055        8.83053        2.88785
C          8.89776        9.48750        1.48734
F          9.98300       10.31488        1.50016
F          9.13019        8.50083        0.57504
F          7.60424        7.99954        2.71946
F          8.28359        9.78124        3.76769
C         10.62268       11.04074        4.50734
C          9.77220       11.10396        5.77322
C          9.86074       10.15988        6.80062
C          9.05465       10.28571        7.93819
C          8.16637       11.35010        8.05994
C          8.06494       12.31664        7.04270
C          8.87289       12.17239        5.91052
C          7.10921       13.47419        7.17338
H          1.91564        8.40191        1.63310
H          1.90755        6.61015        1.55085
H          3.20050        7.54147        0.72418
H          4.95534        6.43046        2.12464
H          3.62076        5.44994        2.79853
H          4.07548        6.34244        5.07928
H          5.33949        7.42718        4.42608
H          5.77059        5.07618        6.40643
H          6.95987        6.27287        5.81079
H          7.03310        3.25963        5.17729
H          7.98693        4.07234        6.46599
H          9.28305        2.71820        4.11316
H         10.20915        3.73969        5.25633
H          9.77382        4.23191        2.23539
H         11.30718        3.75315        3.01466
H         12.62446        5.34081        3.98832
H         14.16872        6.91158        4.72488
H         14.77377        9.25699        5.37118
H         13.05845       11.02123        5.21286
H          8.80720        6.28543        2.69553
H          8.00130       10.05870        1.19773
H          9.98671       11.17467        3.63043
H         11.29539       11.91199        4.50383
H         10.55755        9.32341        6.73211
H          9.12835        9.54604        8.73672
H          7.54540       11.44131        8.95303
H          8.79976       12.91494        5.11093
H          6.07017       13.12278        7.25481
H          7.17121       14.14992        6.31147
H          7.32125       14.06035        8.07932
