56

C          1.55766       -4.68492       -3.42666
C          2.29598       -4.73576       -2.10365
O          3.09475       -3.51662       -1.89442
C          4.33013       -3.51230       -2.41466
O          4.85021       -4.43389       -3.01573
C          5.00064       -2.15920       -2.16820
C          6.50183       -2.26435       -1.78907
C          7.39017       -2.89555       -2.88683
C          7.24309       -2.27962       -4.27415
O          7.52658       -0.87055       -4.18896
C          7.40598       -0.17907       -5.42301
C          7.74107        1.28529       -5.15944
F          9.02679        1.44816       -4.77405
F          7.53114        2.01738       -6.26942
F          6.95668        1.79116       -4.16135
N          6.95972       -0.85894       -1.56793
C          6.92995       -0.41994       -0.34269
S          6.52881       -1.55213        0.84914
C          6.63932       -2.95179       -0.38672
C          7.90537       -3.77333       -0.10607
C          7.94748       -4.42794        1.28674
C          6.83791       -5.46442        1.51542
O          5.70324       -5.30331        1.05545
N          7.21527       -6.52864        2.28361
C          6.44974       -7.62496        2.75857
C          5.09991       -7.82705        2.43002
C          4.43587       -8.94145        2.94901
C          5.08995       -9.85095        3.78277
C          6.43453       -9.64335        4.10529
C          7.11203       -8.53767        3.59718
H          0.91457       -5.57132       -3.51304
H          2.25475       -4.69156       -4.27372
H          0.91827       -3.79514       -3.49038
H          2.97077       -5.59812       -2.04045
H          1.60996       -4.73775       -1.24898
H          4.45681       -1.62677       -1.37638
H          4.88860       -1.56217       -3.08656
H          7.12248       -3.95521       -2.97824
H          8.44150       -2.82600       -2.57366
H          6.22896       -2.43587       -4.68120
H          7.95898       -2.76212       -4.96099
H          6.37931       -0.23359       -5.82511
H          8.11192       -0.56699       -6.17669
H          7.20244       -0.30479       -2.40463
H          7.14011        0.62458       -0.10448
H          5.77077       -3.59147       -0.17804
H          8.80588       -3.15264       -0.23134
H          7.95093       -4.56669       -0.86792
H          7.85065       -3.66017        2.07462
H          8.94200       -4.87508        1.42807
H          8.18457       -6.53655        2.58823
H          4.58872       -7.12156        1.78176
H          3.38734       -9.09692        2.69223
H          4.55914      -10.71681        4.17842
H          6.96042      -10.34418        4.75398
H          8.16306       -8.37812        3.85217
