64

S          2.44544       -1.43570       -1.46311
C          3.47203       -0.78337       -0.33927
N          3.91632       -1.37868        0.80044
C          3.65548       -2.80973        1.03607
C          2.56880       -2.98213        2.09614
O          2.93172       -2.31358        3.30659
C          3.11669       -0.92580        3.07791
C          4.22315       -0.65833        2.04552
S          3.98544        0.89333       -0.69251
C          5.76018        1.03241       -0.20392
C          6.48048        1.72178       -1.36598
C          7.94252        2.05708       -1.02406
N          8.54147        2.93716       -2.04294
C          9.22243        2.64909       -3.17937
C          9.65806        1.29541       -3.62305
C         10.61310        1.37384       -4.82520
C         11.02750       -0.01561       -5.31378
S         12.22441        0.17235       -6.65957
O         11.54758        0.71163       -7.81968
O         13.40245        0.78879       -6.10600
O         12.58090       -1.38035       -6.95263
N          9.43105        3.79489       -3.85323
N          8.88709        4.78293       -3.16786
N          8.34022        4.28187       -2.08522
C          7.69289        5.07586       -1.02616
C          7.11526        6.36748       -1.61091
C          6.30511        7.17382       -0.58062
C          4.74139        6.96644       -0.56205
C          4.11955        5.56066       -0.20053
C          4.38117        4.94388        1.22425
F          4.18499        5.83500        2.19514
F          3.56439        3.89629        1.40079
F          5.66369        4.48103        1.30872
F          2.78667        5.68072       -0.34391
F          4.57337        4.64304       -1.12315
F          4.21249        7.87492        0.28646
F          4.30317        7.23464       -1.82621
F          6.78249        6.96278        0.69159
F          6.47116        8.49565       -0.86345
H          4.59457       -3.26490        1.38965
H          3.35138       -3.26441        0.08573
H          2.44510       -4.04273        2.34998
H          1.60780       -2.59035        1.71362
H          3.39181       -0.47939        4.04352
H          2.17436       -0.46133        2.72584
H          5.19376       -1.00596        2.43503
H          4.27241        0.41747        1.84406
H          6.15153        0.02107       -0.02886
H          5.86573        1.61324        0.72510
H          5.94775        2.65009       -1.62256
H          6.44326        1.08611       -2.26224
H          8.57470        1.16031       -0.98865
H          8.03923        2.55944       -0.05213
H          8.75742        0.70759       -3.87478
H         10.13624        0.77554       -2.77540
H         11.50937        1.94503       -4.54317
H         10.13153        1.92583       -5.64408
H         10.18370       -0.59363       -5.71557
H         11.53632       -0.60540       -4.53799
H         12.23660       -1.59895       -7.84068
H          8.44742        5.28488       -0.25427
H          6.91561        4.44406       -0.58887
H          6.48170        6.15743       -2.48243
H          7.92491        7.02686       -1.94761
