65

C          0.84440        0.52067       -0.23280
C          2.26177       -0.04903       -0.14467
C          3.09492        0.27968       -1.38599
C          4.48504       -0.30991       -1.35867
O          4.89383       -1.18718       -0.63058
O          5.28231        0.28235       -2.31448
C          6.62064       -0.23986       -2.39043
C          7.32305        0.56621       -3.47745
C          8.78985        0.18934       -3.63689
C          9.46963        1.08861       -4.67157
N         10.86721        0.58323       -4.94313
C         10.97830       -0.93417       -5.29956
C         10.21615       -1.63217       -4.15642
O          8.87498       -1.17678       -4.05314
C         12.50696       -1.19823       -5.26537
C         12.99470       -2.61053       -5.53105
C         13.78272       -2.85867       -6.66083
C         14.27090       -4.14309       -6.90627
C         13.96364       -5.18884       -6.03732
C         13.18147       -4.96652       -4.89195
C         12.72654       -3.66665       -4.64483
C         12.82980       -6.10036       -3.96527
C         10.29647       -1.08478       -6.67837
C         10.65529       -2.33216       -7.52404
O         11.35495       -2.15949       -8.51066
C         10.13240       -3.66894       -7.14177
C         10.80669       -4.79720       -7.64435
C         10.38806       -6.07715       -7.29460
C          9.27602       -6.24815       -6.46167
C          8.57821       -5.13388       -5.98380
C          9.00640       -3.84876       -6.31623
H          0.26877        0.28336        0.67143
H          0.29638        0.10707       -1.09242
H          0.85354        1.61548       -0.34110
H          2.22696       -1.14009       -0.01227
H          2.77267        0.34591        0.74705
H          3.18143        1.36640       -1.54182
H          2.60250       -0.10568       -2.29680
H          6.59284       -1.31263       -2.62801
H          7.11904       -0.12757       -1.41394
H          7.25513        1.63722       -3.22942
H          6.80565        0.42241       -4.43899
H          9.31664        0.29555       -2.66338
H          9.55547        2.12542       -4.32018
H          8.92660        1.07768       -5.62429
H         11.45595        0.74133       -4.11094
H         11.29562        1.12084       -5.70961
H         10.75034       -1.47568       -3.19771
H         10.17253       -2.70891       -4.35150
H         12.87227       -0.87781       -4.27047
H         12.98148       -0.53264       -6.00570
H         14.00352       -2.05118       -7.36019
H         14.88913       -4.32640       -7.78560
H         14.34030       -6.19259       -6.24342
H         12.16414       -3.48878       -3.72584
H         13.72180       -6.67205       -3.67365
H         12.14126       -6.80283       -4.45913
H         12.34178       -5.74132       -3.05064
H         10.59409       -0.24508       -7.32499
H          9.20621       -1.04042       -6.54203
H         11.66659       -4.64280       -8.29424
H         10.92539       -6.94674       -7.67407
H          8.94401       -7.25173       -6.19290
H          7.69524       -5.26809       -5.35849
H          8.43509       -2.99323       -5.95280
