44

F          1.71547       -1.00383        0.79404
C          1.36360       -0.07400       -0.12259
C          2.25869       -0.13172       -1.35890
O          2.13170       -1.42677       -1.92710
C          2.88914       -1.60534       -3.10258
C          2.65697       -3.06449       -3.49814
N          3.11583       -3.36707       -4.89808
C          4.64998       -3.33458       -5.08323
C          5.38865       -4.41514       -4.34664
C          5.69153       -5.62895       -4.98687
C          6.39605       -6.62718       -4.31236
C          6.80912       -6.42151       -2.99266
C          6.53074       -5.21045       -2.35233
C          5.82952       -4.21018       -3.02776
C          2.48160       -4.66014       -5.43672
C          1.00504       -4.49479       -5.66211
C          0.54722       -3.74619       -6.76034
C         -0.82046       -3.57135       -6.97450
C         -1.74288       -4.15564       -6.10015
C         -1.29671       -4.91496       -5.01515
C          0.07245       -5.08232       -4.79381
F          0.06362       -0.27401       -0.43785
F          1.47784        1.14868        0.44659
H          3.29555        0.07712       -1.04236
H          1.92414        0.65531       -2.05709
H          3.95912       -1.38665       -2.92046
H          2.53973       -0.92497       -3.90967
H          1.57883       -3.26593       -3.46454
H          3.17144       -3.76002       -2.82414
H          2.74192       -2.61696       -5.49905
H          4.96416       -2.33419       -4.75954
H          4.80331       -3.41195       -6.16778
H          5.39841       -5.78695       -6.02712
H          6.63483       -7.56059       -4.82232
H          7.36505       -7.19921       -2.46826
H          6.87263       -5.03889       -1.33147
H          5.64774       -3.25435       -2.53097
H          2.71843       -5.44819       -4.71257
H          3.01147       -4.87355       -6.37491
H          1.26005       -3.31987       -7.47299
H         -1.16753       -2.99519       -7.83247
H         -2.81175       -4.02806       -6.27308
H         -2.01503       -5.38216       -4.34126
H          0.41691       -5.68620       -3.95143
