45

C          3.90932        0.16531        6.06988
C          5.40387        0.14340        6.30708
O          6.02404       -0.65102        5.26618
C          7.43283       -0.75580        5.37946
C          7.86594       -1.61128        4.19329
S          6.82568       -1.11448        2.76134
C          7.41246        0.57288        2.38250
C          6.75712        1.12711        1.11927
C          7.16859        2.59303        0.83413
C          8.68741        2.72315        0.61313
C          9.19199        4.15955        0.36198
C         10.69259        4.23156        0.39014
C         11.53387        4.40217       -0.64848
C         11.10240        4.57859       -2.07905
C         13.02341        4.43811       -0.43098
C          6.35186        3.10484       -0.35969
Br         7.78486       -2.30882        1.16908
H          3.42006        0.74599        6.86305
H          3.49411       -0.85055        6.08452
H          3.66454        0.63381        5.10728
H          5.64937       -0.31656        7.28055
H          5.83569        1.16043        6.29080
H          7.73778       -1.25057        6.32032
H          7.91660        0.23887        5.35152
H          7.61872       -2.67225        4.33308
H          8.92265       -1.50090        3.92202
H          8.50860        0.53211        2.33286
H          7.10594        1.13911        3.27828
H          5.66176        1.07337        1.22287
H          7.03464        0.50487        0.25341
H          6.89686        3.19846        1.71903
H          8.98879        2.08579       -0.23668
H          9.23122        2.33718        1.49253
H          8.78123        4.81933        1.14688
H          8.79859        4.53222       -0.59313
H         11.14213        4.11189        1.38332
H         10.01589        4.54492       -2.22042
H         11.55287        3.79941       -2.71462
H         11.46534        5.54110       -2.47367
H         13.28885        4.29606        0.62421
H         13.44429        5.39995       -0.76579
H         13.52796        3.65861       -1.02457
H          6.60541        2.55197       -1.27699
H          6.54446        4.16814       -0.54590
H          5.27303        2.99200       -0.18403
