69

C          1.66858        0.27133        0.01148
C          3.12485        0.16023       -0.38339
O          3.63702       -1.19223       -0.02950
C          4.28002       -1.29740        1.11409
O          4.59188       -0.47295        1.93014
N          4.64783       -2.72226        1.30630
C          5.45818       -3.07644        2.25503
C          5.68597       -4.53720        2.30122
C          5.06936       -5.00652        0.95651
C          4.06871       -3.90060        0.55875
C          2.61789       -4.12782        1.01702
C          1.91345       -5.25252        0.24662
C          0.49045       -5.49662        0.76413
C         -0.21545       -6.67367        0.08179
C         -1.62069       -6.91560        0.64437
C         -2.30795       -8.11198        0.00452
O         -3.60859       -8.23649        0.62071
C         -4.35210       -9.31011        0.20489
O         -3.96095      -10.11055       -0.62256
C         -5.65826       -9.32787        0.90801
C         -6.55517      -10.29185        0.67245
C          7.14641       -4.94161        2.57255
C          7.28724       -6.45929        2.68692
O          8.61684       -6.71160        3.08978
C          9.03062       -8.05614        2.95761
C         10.55630       -8.10628        2.83350
C         11.18849       -7.75094        1.43857
C         11.02293       -6.32406        0.79681
C         11.61420       -5.11615        1.58739
F         11.67045       -4.05087        0.73712
F         10.79031       -4.78211        2.61991
F         11.68461       -6.38266       -0.39073
F          9.70078       -6.09665        0.52073
F         12.53095       -7.96341        1.54218
F         10.67548       -8.63633        0.53435
F         11.14783       -7.32350        3.78292
F         10.92907       -9.40331        3.06924
H          1.29107        1.25120       -0.31209
H          1.53890        0.20644        1.09965
H          1.06056       -0.50145       -0.47617
H          3.76201        0.89870        0.11723
H          3.27525        0.20607       -1.46756
H          5.87425       -2.31421        2.91950
H          5.08049       -4.89990        3.16103
H          4.58163       -5.98349        1.03434
H          5.86653       -5.08902        0.20380
H          4.09970       -3.66361       -0.51193
H          2.05091       -3.19295        0.88903
H          2.61161       -4.35515        2.09695
H          2.49027       -6.18874        0.32952
H          1.88596       -5.00381       -0.82754
H         -0.10993       -4.58025        0.63307
H          0.52861       -5.68120        1.85181
H          0.39444       -7.58521        0.20581
H         -0.27353       -6.49086       -1.00468
H         -2.24520       -6.02021        0.49496
H         -1.56390       -7.07981        1.73273
H         -1.74377       -9.04500        0.15990
H         -2.43472       -7.98343       -1.08233
H         -5.84502       -8.52163        1.61875
H         -6.33918      -11.08543       -0.04478
H         -7.51616      -10.31156        1.18501
H          7.49223       -4.49015        3.51431
H          7.80418       -4.57212        1.77230
H          7.07760       -6.95395        1.71882
H          6.56431       -6.85665        3.43020
H          8.59169       -8.54071        2.06839
H          8.76771       -8.65296        3.84931
H         12.62319       -5.33075        1.97159
