103

C          0.90811       -0.93424       -0.61627
C          2.41245       -0.65019       -0.61362
C          2.78591        0.66650        0.07709
C          4.29041        0.95547        0.07329
C          4.67902        2.25220        0.79200
C          6.18544        2.53096        0.76646
C          6.60497        3.79932        1.51799
C          8.11468        4.05601        1.46168
C          8.58474        5.27708        2.26041
C         10.09491        5.51108        2.14735
C         10.62996        6.68405        2.97693
C         12.12996        6.91506        2.76348
C         12.74646        8.02156        3.62785
C         14.20150        8.31186        3.24305
C         14.93386        9.30859        4.15114
C         16.29276        9.70975        3.56716
C         17.20610       10.52458        4.49587
C         18.43047       11.03711        3.71702
C         19.60575       11.73893        4.42791
O         20.63694       10.83803        4.87085
C         20.36967       10.18520        6.10106
C         20.26506       11.19857        7.24483
N         19.04997       12.07668        6.88602
C         19.23560       12.74285        5.53805
C         18.60938       13.04642        7.95589
C         17.34921       12.52861        8.64478
O         16.64286       11.50757        7.91386
C         17.21214       11.17932        9.21078
C         21.54372       12.00946        7.47733
C         22.69954       11.12183        7.96503
C         23.93623       11.93064        8.36960
N         25.02557       11.02994        8.70919
C         26.23685       11.71155        9.17541
C         27.37018       10.74137        9.42857
C         27.15692        9.37660        9.65800
C         28.21987        8.49598        9.87550
C         29.52936        8.97945        9.86952
C         29.76819       10.33694        9.65199
C         28.69807       11.21116        9.43702
O         28.88843       12.55694        9.22855
H          0.67889       -1.89108       -1.10549
H          0.35384       -0.14777       -1.15035
H          0.50802       -0.98045        0.40779
H          2.78646       -0.63419       -1.65148
H          2.94261       -1.48050       -0.11660
H          2.41917        0.64685        1.11878
H          2.25183        1.49974       -0.41334
H          4.65027        0.99536       -0.97010
H          4.82368        0.10917        0.54170
H          4.33243        2.20614        1.83953
H          4.14131        3.10107        0.33381
H          6.52333        2.60126       -0.28270
H          6.72074        1.66522        1.19533
H          6.28433        3.72201        2.57195
H          6.06768        4.66975        1.10199
H          8.42256        4.17168        0.40722
H          8.64620        3.16082        1.83070
H          8.30804        5.14930        3.32183
H          8.04593        6.17636        1.91347
H         10.35421        5.67244        1.08593
H         10.62597        4.59001        2.44672
H         10.42841        6.50087        4.04708
H         10.07733        7.60420        2.71691
H         12.30485        7.15097        1.69870
H         12.67226        5.97145        2.95149
H         12.68757        7.73477        4.69264
H         12.15184        8.94658        3.52875
H         14.22270        8.68717        2.20489
H         14.76947        7.36491        3.22781
H         15.06729        8.86443        5.15324
H         14.31494       10.21069        4.29710
H         16.12589       10.28393        2.63962
H         16.83956        8.80171        3.25915
H         17.49441        9.88185        5.34568
H         16.63475       11.36876        4.92200
H         18.06297       11.73925        2.95030
H         18.88414       10.20501        3.15582
H         20.11942       12.33692        3.66007
H         21.21171        9.50723        6.28414
H         19.45518        9.56650        6.05137
H         19.97984       10.67491        8.16993
H         18.22608       11.43636        6.80179
H         20.02427       13.49320        5.66658
H         18.29437       13.25598        5.30238
H         18.39583       14.00526        7.46810
H         19.42558       13.20433        8.66947
H         16.71472       13.32291        9.04945
H         18.04488       10.47123        9.18746
H         16.47463       11.00572        9.99739
H         21.36299       12.79544        8.22802
H         21.84642       12.51569        6.54953
H         22.98863       10.42195        7.16470
H         22.38527       10.50586        8.82282
H         23.70634       12.53982        9.26082
H         24.19156       12.65228        7.55943
H         25.26649       10.46058        7.89395
H         25.98515       12.24493       10.11060
H         26.58609       12.49211        8.47026
H         26.13058        9.00809        9.67074
H         28.02489        7.43775       10.04909
H         30.36941        8.30480       10.03683
H         30.79037       10.72455        9.64720
H         29.84086       12.74440        9.24999
