62

C          0.13784        7.95608       -5.84314
C          1.65200        8.13558       -5.71141
C          2.40574        6.81132       -5.54700
C          3.92341        6.97701       -5.42230
C          4.66188        5.65297       -5.20478
C          6.18189        5.80452       -5.08982
C          6.89401        4.47897       -4.80692
C          8.41748        4.60397       -4.70375
C          9.08029        3.27172       -4.33196
C         10.60057        3.34270       -4.25193
N         11.21104        2.01129       -4.02071
C         12.34687        2.13045       -3.31471
N         13.18830        1.13561       -3.04446
C         13.04587       -0.25681       -3.50407
C         13.73374       -1.22217       -2.53798
C         13.06630       -1.32065       -1.15959
C         13.78823       -2.28916       -0.21962
N         12.51119        3.41096       -2.90700
C         11.24129        4.16574       -3.09039
C         10.44533        4.24204       -1.78049
C         11.10819        5.13978       -0.72552
C         10.42614        5.05328        0.63039
F         10.55340        3.74432        1.13152
H         -0.37517        8.92177       -5.94693
H         -0.28320        7.44930       -4.96197
H         -0.11695        7.34914       -6.72483
H          1.87321        8.78634       -4.84835
H          2.03995        8.66723       -6.59684
H          2.17975        6.15346       -6.40489
H          2.02208        6.28390       -4.65549
H          4.14869        7.66090       -4.58485
H          4.31419        7.47150       -6.32899
H          4.42742        4.96183       -6.03327
H          4.27527        5.16844       -4.29073
H          6.41862        6.52413       -4.28609
H          6.57959        6.24735       -6.01958
H          6.64366        3.74980       -5.59683
H          6.50212        4.05128       -3.86731
H          8.66727        5.37819       -3.95816
H          8.82742        4.96566       -5.66220
H          8.81961        2.52295       -5.09910
H          8.67385        2.88775       -3.38320
H         10.99529        3.74068       -5.20435
H         11.04688        1.23530       -4.65238
H         14.02429        1.35885       -2.51210
H         13.46720       -0.35171       -4.51770
H         11.97061       -0.49012       -3.55309
H         14.79642       -0.93728       -2.43510
H         13.74349       -2.21184       -3.02005
H         12.01986       -1.64249       -1.29352
H         13.01684       -0.32349       -0.69033
H         13.82700       -3.30315       -0.64241
H         13.27660       -2.35285        0.74914
H         14.82267       -1.96878       -0.02865
H         13.10695        3.61689       -2.10993
H         11.48050        5.17664       -3.44802
H         10.30448        3.22878       -1.37246
H          9.44242        4.63716       -1.99914
H         11.09258        6.19162       -1.05570
H         12.16989        4.87744       -0.57565
H          9.34899        5.27509        0.56573
H         10.89119        5.73289        1.35908
