93

C          0.44155       -0.40830       -0.11078
C          1.94882       -0.15852       -0.01401
C          2.55908        0.38214       -1.31195
C          4.07132        0.61349       -1.23448
C          4.67787        1.15478       -2.53312
C          6.19692        1.34327       -2.47253
C          6.80081        1.88857       -3.77060
C          8.32603        2.02749       -3.72988
C          8.92733        2.59288       -5.02050
C         10.45577        2.69489       -4.99414
C         11.05613        3.28044       -6.27614
C         12.58678        3.34617       -6.26404
C         13.18559        3.95031       -7.53817
C         14.71775        3.97184       -7.54793
C         15.31079        4.58888       -8.81903
C         16.84262        4.56415       -8.85812
C         17.42358        5.18368      -10.13387
C         18.95274        5.10121      -10.20971
C         19.51274        5.71993      -11.49640
C         21.02879        5.52984      -11.59711
N         21.58443        6.10570      -12.85350
C         21.58156        5.33323      -13.96642
C         22.04191        5.82027      -15.17343
C         22.54000        7.12369      -15.23076
C         22.56551        7.92790      -14.09297
C         22.05286        7.39658      -12.88653
C         21.98129        8.17136      -11.70574
C         21.91361        8.89257      -10.73395
C         23.20410        9.28330      -14.10921
C         24.59207        9.18490      -13.40987
O         24.90401        8.13283      -12.84258
N         25.39849       10.27489      -13.45704
C         25.05151       11.55339      -14.08895
C         24.43734       12.56655      -13.11912
C         26.71802       10.18245      -12.80139
C         27.81294        9.68467      -13.74575
H          0.03339       -0.79169        0.83471
H          0.20854       -1.14393       -0.89518
H         -0.10183        0.51665       -0.35572
H          2.46078       -1.09550        0.26392
H          2.15387        0.55052        0.80603
H          2.05693        1.32753       -1.58381
H          2.34057       -0.32053       -2.13574
H          4.57071       -0.33456       -0.96707
H          4.29312        1.31261       -0.40875
H          4.19918        2.11726       -2.78636
H          4.43065        0.46943       -3.36323
H          6.67280        0.37731       -2.22711
H          6.44913        2.02233       -1.63890
H          6.34974        2.87048       -3.99872
H          6.51912        1.22699       -4.60893
H          8.77510        1.04054       -3.52006
H          8.61202        2.67379       -2.88119
H          8.49743        3.59118       -5.21622
H          8.62011        1.96145       -5.87304
H         10.88367        1.69244       -4.81586
H         10.76618        3.31123       -4.13190
H         10.64740        4.29317       -6.44049
H         10.72541        2.67907       -7.14141
H         12.99244        2.32958       -6.11697
H         12.92108        3.93241       -5.38997
H         12.80412        4.97837       -7.66864
H         12.82564        3.38257       -8.41437
H         15.09625        2.94092       -7.43234
H         15.08305        4.52747       -6.66639
H         14.95838        5.63057       -8.91827
H         14.91788        4.05256       -9.70077
H         17.19184        3.52061       -8.76784
H         17.24323        5.09464       -7.97681
H         17.10870        6.23908      -10.20638
H         16.99092        4.67666      -11.01388
H         19.26355        4.04413      -10.14406
H         19.39698        5.60536       -9.33468
H         19.27512        6.79497      -11.53483
H         19.03186        5.25617      -12.37390
H         21.29687        4.46507      -11.60045
H         21.55360        6.00842      -10.76186
H         21.19921        4.32223      -13.83980
H         22.02584        5.17651      -16.05086
H         22.93417        7.51432      -16.16982
H         21.86171        9.51713       -9.86412
H         22.58049       10.02053      -13.58150
H         23.30769        9.62591      -15.14696
H         24.37568       11.37452      -14.93523
H         25.97550       11.95889      -14.52648
H         23.48545       12.20199      -12.70855
H         24.24349       13.51656      -13.63500
H         25.11038       12.77365      -12.27661
H         26.61349        9.50304      -11.94721
H         26.95958       11.18168      -12.41230
H         27.59309        8.66621      -14.09069
H         28.77843        9.66600      -13.22286
H         27.92137       10.33636      -14.62394
