43

C          0.73523        2.17511       -2.58784
C          2.23712        1.91673       -2.45220
C          2.92220        2.93936       -1.53494
C          4.41723        2.65015       -1.39701
S          5.13524        3.92601       -0.28479
C          6.70682        3.28162       -0.04724
N          7.28208        2.20563       -0.55868
N          8.54356        2.13611       -0.01152
C          8.66596        3.16391        0.78585
O          7.54267        3.95122        0.82922
P         10.08444        3.46684        1.82354
C         10.91118        5.03444        1.38723
C         12.28530        4.99712        2.06052
O         12.62645        4.03418        2.73252
O         12.98933        6.08641        1.80170
C         14.34692        6.16985        2.39471
C         14.29194        6.77849        3.77964
C          9.62590        3.34199        3.57057
C          9.17125        1.91444        3.95974
N          8.71799        1.94532        5.34146
H          0.26478        1.42791       -3.23974
H          0.53794        3.16683       -3.01966
H          0.23292        2.12962       -1.61075
H          2.71251        1.94233       -3.44598
H          2.40623        0.90302       -2.05395
H          2.44731        2.91845       -0.54066
H          2.77070        3.95422       -1.93821
H          4.94215        2.70495       -2.35924
H          4.60807        1.66967       -0.94259
H         10.92484        2.40521        1.43807
H         10.31168        5.89307        1.72385
H         11.00089        5.10250        0.29254
H         14.88679        6.80291        1.68208
H         14.77384        5.15970        2.39683
H         13.81167        7.76496        3.76270
H         15.31859        6.90899        4.14861
H         13.76265        6.12693        4.48634
H          8.81406        4.06288        3.75561
H         10.50879        3.65165        4.14832
H          9.99621        1.20520        3.75501
H          8.32583        1.61234        3.32448
H          9.49280        1.86077        5.99893
H          8.06672        1.18653        5.53556
