90

C         12.02490       -0.96174       -6.39772
C         11.49323       -0.11088       -5.24160
C         12.09300       -0.48609       -3.88198
C         11.56343        0.36239       -2.72179
C         12.17688        0.00642       -1.36400
C         11.66033        0.87528       -0.21298
C         12.30099        0.55217        1.14036
C         11.81683        1.45534        2.27893
C         12.51708        1.18727        3.61489
C         12.08295        2.13580        4.73644
C         12.87457        1.94967        6.03508
C         12.48379        2.95334        7.12616
C         13.27763        2.83927        8.43565
C         14.78428        3.07923        8.27103
C         15.51536        3.22738        9.61213
C         17.02166        3.43579        9.50771
C         17.82634        3.06338       10.77657
O         18.96410        3.96025       10.74080
C         18.45674        5.19216       10.40609
N         17.49182        4.90780        9.23171
C         16.47011        5.99570        9.02581
C         17.12003        7.28403        8.51947
C         16.07156        8.36349        8.27089
F         15.40829        8.64217        9.47261
C         18.31785        1.62599       10.78948
C         19.21122        1.29764       11.99296
P         19.98848       -0.34311       11.80310
O         20.50487       -0.58881       10.43397
O         21.07506       -0.45123       12.98060
C         22.49464       -0.22322       12.70937
C         23.30474       -1.02475       13.70636
O         18.80901       -1.28597       12.33429
C         18.97740       -2.74108       12.30480
C         17.74167       -3.36810       12.91309
H         11.57858       -0.66417       -7.35655
H         11.80183       -2.02822       -6.24456
H         13.11666       -0.86503       -6.49581
H         10.39497       -0.20278       -5.19081
H         11.69625        0.95459       -5.44417
H         13.19252       -0.39130       -3.93137
H         11.89300       -1.55279       -3.67714
H         10.46554        0.25829       -2.66481
H         11.75275        1.42927       -2.93606
H         13.27571        0.10100       -1.42553
H         11.97923       -1.05644       -1.13899
H         10.56426        0.76706       -0.13521
H         11.84050        1.93825       -0.45307
H         13.39859        0.64022        1.05097
H         12.10465       -0.50322        1.39875
H         10.72629        1.33873        2.40418
H         11.97541        2.51093        1.99494
H         13.60914        1.27459        3.47112
H         12.33757        0.14296        3.92437
H         11.00595        2.00539        4.93823
H         12.19979        3.17886        4.39212
H         13.94966        2.04135        5.80086
H         12.73449        0.92200        6.41380
H         11.41287        2.83878        7.35673
H         12.59458        3.97924        6.73052
H         13.11774        1.84540        8.88736
H         12.87524        3.56944        9.15807
H         14.93065        3.97407        7.64051
H         15.24397        2.24879        7.71169
H         15.38211        2.29644       10.18828
H         15.05537        4.01023       10.23693
H         17.42248        2.86468        8.65760
H         17.22831        3.29509       11.67990
H         19.26340        5.86343       10.09101
H         17.83136        5.65554       11.19210
H         18.06598        4.86257        8.38175
H         15.95923        6.15684        9.98247
H         15.73632        5.62428        8.30122
H         17.65308        7.10227        7.57043
H         17.85304        7.67362        9.24193
H         15.31351        8.04237        7.53863
H         16.54402        9.29099        7.91819
H         18.87757        1.43213        9.86083
H         17.44117        0.95947       10.77713
H         18.66243        1.32884       12.94498
H         20.04088        2.01683       12.06072
H         22.68701        0.85688       12.81357
H         22.70343       -0.52052       11.67226
H         23.06985       -0.73017       14.73762
H         24.37600       -0.85074       13.53515
H         23.11108       -2.09973       13.59580
H         19.88048       -2.99593       12.87982
H         19.12546       -3.05031       11.25979
H         17.60638       -3.04572       13.95372
H         17.84220       -4.46215       12.90345
H         16.84098       -3.10363       12.34311
