93

C         21.84763       -6.82296        1.73339
C         20.59863       -5.99907        1.41306
C         20.84891       -4.89219        0.38346
C         19.60048       -4.06661        0.05893
C         19.84086       -2.95583       -0.96857
C         18.58447       -2.13744       -1.28224
C         18.81010       -1.02218       -2.30819
C         17.54556       -0.21090       -2.60867
C         17.75914        0.90481       -3.63634
C         16.49162        1.71997       -3.91690
C         16.71155        2.83379       -4.94853
C         15.45328        3.64848       -5.19339
O         15.74764        4.68264       -6.16622
C         14.61551        5.47744       -6.47058
N         15.00084        6.47150       -7.45174
C         15.48356        6.15202       -8.65962
N         15.78504        4.89591       -9.00621
N         15.56580        7.22016       -9.47002
C         15.27021        8.45001       -8.72076
C         14.89138        7.95520       -7.28399
C         13.45254        8.37279       -6.90810
C         12.34016        7.83329       -7.81391
C         10.95464        8.37994       -7.44978
C          9.84825        7.86016       -8.37346
C          8.45632        8.39491       -8.02452
C          7.35753        7.89401       -8.96746
C          5.96357        8.42055       -8.61309
C          4.86398        7.93825       -9.56404
C          3.47044        8.46247       -9.20304
C          2.37923        7.99113      -10.16674
C         15.87535        8.44710       -6.20465
C         17.34689        8.14644       -6.46680
O         17.79598        7.65429       -7.48710
O         18.09215        8.52246       -5.41494
C         19.52581        8.32816       -5.55818
H         21.63494       -7.60563        2.47453
H         22.64951       -6.18876        2.13984
H         22.24130       -7.31606        0.83213
H         20.20636       -5.54776        2.34009
H         19.80224       -6.66543        1.04075
H         21.24229       -5.34187       -0.54537
H         21.64434       -4.22257        0.75570
H         19.20791       -3.62089        0.98988
H         18.80681       -4.73882       -0.31200
H         20.23064       -3.39952       -1.90156
H         20.63353       -2.28178       -0.59910
H         18.19571       -1.69694       -0.34731
H         17.79278       -2.81380       -1.64957
H         19.19496       -1.46038       -3.24573
H         19.60102       -0.34386       -1.94293
H         17.16421        0.22774       -1.66998
H         16.75399       -0.89095       -2.96895
H         18.12844        0.46725       -4.58018
H         18.55568        1.58182       -3.28192
H         16.12771        2.16035       -2.97275
H         15.69327        1.04366       -4.26761
H         17.04972        2.39510       -5.90188
H         17.51220        3.50911       -4.60753
H         15.10498        4.12705       -4.25970
H         14.63310        3.01111       -5.57410
H         14.23582        6.00588       -5.57894
H         13.79952        4.84495       -6.87462
H         15.99274        4.25217       -8.24280
H         16.15109        4.69471       -9.92867
H         16.25701        7.23609      -10.21312
H         14.43763        8.98967       -9.19014
H         16.15585        9.09506       -8.70339
H         13.43188        9.47541       -6.91165
H         13.25436        8.08180       -5.86304
H         12.31484        6.73162       -7.76556
H         12.54873        8.08243       -8.86815
H         10.97601        9.48255       -7.48815
H         10.71755        8.11591       -6.40479
H          9.83355        6.75646       -8.34212
H         10.09054        8.13106       -9.41626
H          8.47508        9.49847       -8.04062
H          8.20586        8.11041       -6.98769
H          7.34397        6.78995       -8.95961
H          7.60563        8.18706      -10.00278
H          5.98186        9.52445       -8.60863
H          5.71199        8.11766       -7.58153
H          4.84617        6.83408       -9.57423
H          5.11228        8.24639      -10.59511
H          3.49325        9.56504       -9.18181
H          3.21970        8.14486       -8.17688
H          2.58300        8.32767      -11.19410
H          1.39273        8.37932       -9.87909
H          2.31211        6.89314      -10.18592
H         15.60493        8.03366       -5.22098
H         15.76682        9.53805       -6.09430
H         19.96212        8.72715       -4.63884
H         19.89515        8.87314       -6.43505
H         19.75232        7.26092       -5.66779
