54

C          2.67222       -1.42774        0.03492
C          3.76350       -0.38214       -0.02115
O          3.74714        0.35191        1.23132
C          4.85386        1.21463        1.37171
C          4.67391        2.01079        2.64238
C          4.44609        3.39366        2.60588
C          4.28882        4.10106        3.78859
C          4.37229        3.35517        4.98203
N          4.55907        2.04530        5.01627
N          4.70154        1.40275        3.85274
C          4.91945       -0.06081        4.02530
C          6.39100       -0.38499        4.32297
C          6.61329       -1.90299        4.56514
C          6.96323       -2.68120        3.28062
C          5.94870       -2.57751        2.12614
C          6.30745       -3.42488        0.93631
C          7.03177       -3.04226       -0.13247
C          7.62104       -1.66500       -0.30172
C          7.32288       -3.99841       -1.25740
C          7.70631       -2.10773        5.62374
C          4.04688        5.60441        3.89611
O          4.11738        6.10251        5.00386
C          3.73957        6.38166        2.64655
H          2.63605       -1.97253       -0.91744
H          1.69001       -0.96747        0.20368
H          2.86640       -2.15457        0.83414
H          3.60424        0.33221       -0.84855
H          4.75334       -0.85070       -0.15375
H          4.92708        1.93152        0.53270
H          5.81315        0.65763        1.40292
H          4.39329        3.87788        1.63079
H          4.27047        3.84484        5.95217
H          4.53303       -0.54952        3.12693
H          4.29186       -0.33457        4.88142
H          6.68302        0.17970        5.22121
H          7.03786       -0.03461        3.50136
H          5.67280       -2.32081        4.96999
H          7.09211       -3.74228        3.54529
H          7.94799       -2.34375        2.91395
H          5.86736       -1.52695        1.81021
H          4.94950       -2.87197        2.49064
H          5.95944       -4.46178        0.96948
H          7.42615       -0.99773        0.54746
H          7.24481       -1.18139       -1.21829
H          8.71416       -1.72909       -0.41984
H          6.88930       -4.98902       -1.07382
H          8.40795       -4.11771       -1.40577
H          6.92113       -3.61921       -2.21135
H          8.66396       -1.67893        5.29199
H          7.87115       -3.17720        5.81184
H          7.43728       -1.63705        6.57932
H          4.59659        6.36017        1.95477
H          3.52589        7.42052        2.91491
H          2.87744        5.95161        2.11437
