69

C          9.32521        3.50560        9.55038
C          8.66590        3.84024        8.21077
C          9.65970        4.32855        7.15186
C          9.01076        4.65370        5.80321
C         10.00442        5.15531        4.75063
C          9.36082        5.47245        3.39705
C         10.35809        5.98880        2.35467
C          9.72164        6.30233        0.99676
C         10.72190        6.83303       -0.03607
C         10.06974        7.17772       -1.38000
C         11.02015        7.74412       -2.41634
O         11.94903        6.68974       -2.83120
C         12.85326        7.04648       -3.77831
S         14.39724        7.89130       -2.98832
C         15.16116        6.44420       -2.17129
C         16.27115        6.81788       -1.17638
C         15.74060        7.65252       -0.00548
C         16.92609        5.51555       -0.68852
C         15.44558        8.05932       -4.58729
O         14.92052        9.01187       -5.40449
C         15.36698       10.38217       -5.15076
C         14.66644       11.30265       -6.13004
C         15.12933       12.75885       -5.98364
C         14.39578       13.70052       -6.94145
H          8.58412        3.18331       10.29433
H          9.85389        4.37749        9.96381
H         10.06082        2.69520        9.44040
H          7.89239        4.61200        8.36240
H          8.13557        2.95221        7.82787
H         10.44070        3.56133        7.00536
H         10.18279        5.22420        7.53146
H          8.22377        5.41374        5.95166
H          8.49578        3.75525        5.42040
H         10.79545        4.39794        4.60819
H         10.51402        6.05757        5.13252
H          8.56267        6.22178        3.53869
H          8.86158        4.56772        3.00869
H         11.15961        5.24102        2.21775
H         10.85158        6.89688        2.74392
H          8.91425        7.04233        1.13436
H          9.23646        5.39375        0.60033
H         11.51485        6.08227       -0.19130
H         11.21794        7.73429        0.36666
H          9.28146        7.93319       -1.22592
H          9.56715        6.29416       -1.80489
H         11.60685        8.58461       -2.00426
H         10.48546        8.09001       -3.31615
H         12.51058        7.79703       -4.51047
H         13.25568        6.15025       -4.27185
H         15.52095        5.77639       -2.96968
H         14.31698        5.95281       -1.66120
H         17.03886        7.40265       -1.71277
H         14.97978        7.09389        0.56023
H         15.29181        8.60051       -0.33448
H         16.55596        7.89851        0.68656
H         16.20125        4.88877       -0.14812
H         17.74772        5.74491        0.00206
H         17.33910        4.92574       -1.51835
H         15.38179        7.07108       -5.06633
H         16.46506        8.26042       -4.21731
H         16.46275       10.40969       -5.27704
H         15.12534       10.64719       -4.10611
H         13.57779       11.23783       -5.97160
H         14.86207       10.94882       -7.15451
H         16.21455       12.81580       -6.16860
H         14.97548       13.09443       -4.94444
H         14.55188       13.40370       -7.98844
H         14.75254       14.73255       -6.83142
H         13.31265       13.69867       -6.75182
