39

C          1.08766       -0.96398       -4.83793
C          2.00234       -1.91716       -4.06680
C          3.31672       -1.26341       -3.62805
C          4.25223       -2.22356       -2.88431
C          5.57035       -1.56533       -2.46782
C          6.54398       -2.48795       -1.72646
N          6.98588       -3.63436       -2.56005
C          6.49114       -4.87683       -2.47972
N          7.04529       -5.60922       -3.45467
C          7.92844       -4.84920       -4.19283
C          7.89145       -3.59343       -3.61951
N          8.51410       -2.36913       -3.95361
O          9.22551       -2.60758       -5.15864
O          9.43652       -1.99796       -2.92526
C          8.63801       -5.47383       -5.36021
O          8.16419       -6.80544       -5.43538
C          8.71856       -7.53289       -6.53999
H          0.15687       -1.46119       -5.14041
H          1.57788       -0.59034       -5.74878
H          0.81509       -0.09187       -4.22615
H          2.22780       -2.79805       -4.69211
H          1.47368       -2.30101       -3.17837
H          3.09813       -0.39446       -2.98448
H          3.83906       -0.86241       -4.51393
H          4.45148       -3.09163       -3.53832
H          3.73707       -2.61919       -1.99108
H          5.37002       -0.72570       -1.78342
H          6.07947       -1.13159       -3.34189
H          6.07799       -2.92715       -0.83384
H          7.44866       -1.95229       -1.41673
H          5.76846       -5.22106       -1.74954
H          6.87720       -6.59112       -3.67507
H          9.21382       -1.73700       -5.59839
H         10.10797       -2.71495       -2.87612
H          9.73422       -5.44349       -5.21422
H          8.41534       -4.90270       -6.28108
H          8.30442       -8.54481       -6.48575
H          9.81716       -7.58148       -6.46693
H          8.43290       -7.06812       -7.49751
