80

S          3.67733       -0.95607        1.70411
C          5.11244       -2.02868        1.29660
C          5.11672       -2.29187       -0.18692
O          4.55294       -3.20753       -0.74491
O          5.79098       -1.29300       -0.85565
C          5.76946       -1.34484       -2.29870
C          5.07421       -0.09121       -2.84317
N          3.68032       -0.36374       -3.35135
C          2.72517       -0.85511       -2.28518
C          1.39512       -1.26359       -2.92594
N          0.83066       -0.28871       -3.84699
C          1.80088        0.17111       -4.83305
C          3.07216        0.79789       -4.17066
C          2.84572        2.05448       -3.30386
C          3.26617        3.36498       -3.99640
C          4.68446        3.87295       -3.73331
C          4.87096        5.00051       -2.64895
C          4.49586        4.74185       -1.13548
C          5.25021        3.68316       -0.23285
C          6.82005        3.67892       -0.06097
C          7.51629        4.94854        0.55637
F          6.96436        5.25930        1.74011
F          8.81540        4.66032        0.73777
F          7.41713        6.00228       -0.26834
F          7.07962        2.63673        0.77742
F          7.39456        3.41054       -1.25913
F          4.69760        3.79335        0.99797
F          4.93479        2.43111       -0.70611
F          4.60150        5.93413       -0.50441
F          3.18155        4.35672       -1.10530
F          6.15527        5.42870       -2.69597
F          4.06128        6.03088       -3.03205
F          5.55189        2.84165       -3.42845
F          5.16216        4.44477       -4.88448
C          1.15359        0.96361       -5.99370
C          0.67043        2.38075       -5.76830
C          1.17775        3.41658       -6.56780
C          0.78914        4.74205       -6.37499
C         -0.12198        5.08947       -5.36554
C         -0.66072        4.04963       -4.59197
C         -0.28803        2.72006       -4.80025
C         -0.53203        6.52242       -5.14864
C          7.23017       -1.43557       -2.76666
O          7.28318       -1.31461       -4.20401
C          6.85983       -2.40864       -4.91189
O          6.60746       -3.48515       -4.42071
C          6.66732       -2.04014       -6.36439
S          4.94826       -1.42216       -6.58748
H          4.28567        0.21981        1.41790
H          4.94239       -2.97334        1.82383
H          6.03922       -1.56307        1.64649
H          5.24920       -2.26735       -2.60305
H          5.62672        0.31409       -3.69807
H          5.02093        0.67301       -2.06478
H          3.79767       -1.11662       -4.05708
H          2.61720       -0.04298       -1.55466
H          3.18861       -1.71441       -1.78659
H          0.67583       -1.47805       -2.12460
H          1.54267       -2.21066       -3.47510
H          0.37766        0.48282       -3.35712
H          2.16656       -0.75332       -5.32431
H          3.83001        0.99263       -4.94328
H          3.36074        1.95852       -2.34215
H          1.78100        2.13430       -3.05353
H          2.55958        4.16649       -3.74968
H          3.19873        3.25590       -5.08496
H          0.31376        0.33136       -6.32380
H          1.87517        0.97495       -6.82461
H          1.89533        3.17959       -7.35756
H          1.20667        5.52153       -7.01551
H         -1.39937        4.28296       -3.82243
H         -0.78202        1.94260       -4.21348
H         -1.20270        6.86437       -5.95135
H          0.33887        7.19247       -5.15102
H         -1.06131        6.65197       -4.19658
H          7.65999       -2.39176       -2.44186
H          7.82815       -0.60149       -2.37999
H          6.82644       -2.90804       -7.01125
H          7.32184       -1.21503       -6.66671
H          4.34971       -2.63726       -6.56277
