73

C          1.50536        2.23598       -1.67396
C          2.87915        1.70667       -1.25480
C          3.43969        0.65303       -2.21609
C          4.81439        0.11352       -1.80883
C          5.37483       -0.92371       -2.78682
C          6.75076       -1.46696       -2.38838
C          7.31643       -2.47478       -3.39434
C          8.70219       -3.00575       -3.01488
C          9.27414       -3.97919       -4.05388
C         10.68871       -4.44130       -3.68637
C         11.27672       -5.55016       -4.59979
C         11.32305       -5.11842       -6.07827
O         12.16574       -3.98431       -6.10847
C         12.24890       -3.34855       -7.40263
C         13.17698       -2.15211       -7.29130
C         13.33012       -1.39481       -8.61679
C         14.28264       -0.19801       -8.51126
C         14.44686        0.57195       -9.82546
C         15.40749        1.76230       -9.72020
C         15.57362        2.52554      -11.03664
N         12.69266       -5.74068       -4.18154
C         12.93941       -6.71909       -3.35843
S         11.64286       -7.74942       -3.01563
C         10.59467       -6.93198       -4.33776
C         10.42112       -7.90384       -5.51943
C          9.73930       -9.18616       -5.11736
C          8.47336       -9.48487       -5.41872
H          1.13168        2.99055       -0.96847
H          0.76165        1.42639       -1.71828
H          1.54370        2.70295       -2.66946
H          2.81586        1.27623       -0.24096
H          3.59173        2.54574       -1.18148
H          3.50376        1.08512       -3.23063
H          2.72597       -0.18644       -2.29228
H          4.74915       -0.33130       -0.80025
H          5.52564        0.95380       -1.72194
H          5.43993       -0.47482       -3.79373
H          4.66315       -1.76315       -2.87725
H          6.68560       -1.93860       -1.39228
H          7.45805       -0.62625       -2.27899
H          7.37042       -2.00096       -4.39021
H          6.61520       -3.32119       -3.49952
H          8.65256       -3.50493       -2.03176
H          9.39849       -2.15859       -2.89125
H          9.29019       -3.48249       -5.03698
H          8.59143       -4.84133       -4.15364
H         10.70318       -4.81311       -2.64800
H         11.36906       -3.57850       -3.72428
H         10.30417       -4.88352       -6.43461
H         11.72952       -5.92803       -6.71187
H         11.23357       -3.04004       -7.71340
H         12.62392       -4.07864       -8.14424
H         14.16502       -2.49891       -6.94563
H         12.78939       -1.47342       -6.51425
H         12.34074       -1.04546       -8.95880
H         13.69651       -2.08438       -9.39675
H         15.27161       -0.55013       -8.16888
H         13.91871        0.48927       -7.72759
H         13.45922        0.92965      -10.16623
H         14.80523       -0.11668      -10.61088
H         16.39208        1.40310       -9.37554
H         15.04703        2.45071       -8.93711
H         15.96689        1.87350      -11.83062
H         16.26809        3.36931      -10.92660
H         14.61304        2.93065      -11.38812
H         13.37936       -5.04667       -4.48804
H         13.92444       -6.85996       -2.90989
H          9.61855       -6.76608       -3.86414
H         11.39958       -8.11926       -5.97912
H          9.80725       -7.39177       -6.27756
H         10.33943       -9.90575       -4.55102
H          7.84590       -8.80866       -6.00419
H          8.02049      -10.42473       -5.10472
