70

C          5.52629       -9.43008       -0.19091
C          6.58147       -8.51435       -0.81404
C          6.14764       -7.04466       -0.85618
C          7.21312       -6.12231       -1.45999
C          6.76041       -4.67350       -1.51851
O          7.83949       -3.86576       -2.03376
C          7.49873       -2.50026       -2.19469
C          8.75746       -1.79274       -2.69034
N          9.29298       -2.55660       -3.82187
C         10.25635       -2.13714       -4.64016
N         10.84693       -2.90219       -5.58203
C         11.70673       -2.07463       -6.44380
C         11.95473       -0.80238       -5.57524
N         10.76454       -0.89383       -4.66517
C         13.24734       -0.96697       -4.75073
C         13.52564        0.12566       -3.71374
O         14.68123       -0.24588       -2.99888
Si        15.36852        0.64687       -1.73525
C         16.96087       -0.26041       -1.36700
C         15.66893        2.41505       -2.30272
C         14.19889        0.62969       -0.25937
C         11.86556        0.52608       -6.35719
C         13.06539        0.93452       -7.23983
C         13.34236        0.00547       -8.44444
C         12.25707       -0.04683       -9.52519
C         12.88331        2.39512       -7.68230
H          5.85914      -10.47642       -0.18349
H          4.57974       -9.38603       -0.74921
H          5.31259       -9.14147        0.84866
H          6.80876       -8.85384       -1.83854
H          7.52476       -8.59756       -0.24878
H          5.90711       -6.70794        0.16681
H          5.21107       -6.96088       -1.43461
H          7.46604       -6.46232       -2.47804
H          8.13847       -6.18147       -0.86455
H          6.48751       -4.30438       -0.51268
H          5.87497       -4.56048       -2.17233
H          7.17920       -2.04160       -1.24139
H          6.67399       -2.38481       -2.92470
H          9.50313       -1.74587       -1.87947
H          8.50469       -0.77166       -3.01133
H          9.06891       -3.55209       -3.77728
H         10.41508       -3.75541       -5.91965
H         11.18769       -1.82850       -7.38171
H         12.63977       -2.60136       -6.67408
H         10.68642       -0.27853       -3.86193
H         14.10035       -1.01215       -5.44404
H         13.22077       -1.93590       -4.22703
H         12.65933        0.23543       -3.02443
H         13.66265        1.10434       -4.21092
H         17.62193       -0.26871       -2.24453
H         16.76480       -1.30291       -1.08074
H         17.50493        0.21844       -0.54063
H         16.30993        2.44710       -3.19527
H         16.17630        2.98744       -1.51243
H         14.73407        2.94604       -2.53375
H         13.99345       -0.39764        0.07359
H         13.23881        1.11865       -0.48097
H         14.64462        1.16961        0.58900
H         11.71790        1.32794       -5.61456
H         10.94171        0.50842       -6.95788
H         13.96990        0.90225       -6.60858
H         13.56084       -1.01477       -8.08782
H         14.28090        0.34806       -8.90793
H         11.28130       -0.37730       -9.13728
H         12.54242       -0.74565      -10.32250
H         12.10249        0.93412       -9.99421
H         11.95167        2.53879       -8.24836
H         13.71607        2.71560       -8.32312
H         12.85047        3.07044       -6.81570
