70

C          2.64614        2.81362        0.55431
C          3.04920        1.60883        1.40811
C          3.68641        2.01053        2.74557
C          4.03016        0.83175        3.67150
C          5.14420       -0.10281        3.17739
C          6.55849        0.49446        3.15895
N          7.10392        0.80350        4.49557
C          7.23101        2.03681        5.05223
C          6.85008        3.36319        4.48674
C          5.60217        4.01197        5.13268
C          5.81148        4.63595        6.51750
S          6.90960        6.08664        6.47123
C          8.23381        5.70256        7.61199
S          8.48496        4.18073        8.30048
N          9.02226        6.75674        7.88814
C          8.77067        8.12151        7.38474
C          9.50466        8.43145        6.07786
C         10.21898        6.61453        8.74388
C          9.92926        6.88824       10.21992
N          7.79422        1.86679        6.25637
C          8.03503        0.53290        6.48562
C          7.60923       -0.15968        5.38233
C          7.66466       -1.62263        5.08206
C          8.44086       -2.44273        6.13199
C          8.44059       -3.91499        5.78647
C          9.48784       -4.47608        5.04239
C          9.46731       -5.82738        4.68867
C          8.39471       -6.63495        5.07482
C          7.34641       -6.08679        5.81923
C          7.37096       -4.73620        6.17258
H          2.18895        2.49746       -0.39233
H          3.51617        3.44057        0.30698
H          1.91771        3.44942        1.07859
H          3.74272        0.97419        0.83189
H          2.16358        0.98305        1.60833
H          2.99268        2.67969        3.28028
H          4.58220        2.62464        2.54234
H          3.12282        0.22521        3.81750
H          4.28926        1.20352        4.67728
H          4.93607       -0.43359        2.14842
H          5.14715       -1.01952        3.78393
H          6.59067        1.41904        2.57054
H          7.25962       -0.20533        2.68513
H          6.68262        3.25940        3.40848
H          7.70716        4.04692        4.60191
H          4.79529        3.26980        5.21729
H          5.23337        4.78072        4.43792
H          6.24045        3.94507        7.26062
H          4.85044        4.99365        6.90947
H          9.09056        8.81102        8.17861
H          7.68630        8.25536        7.27050
H         10.59177        8.32528        6.19128
H          9.29860        9.46750        5.77859
H          9.17580        7.77028        5.26592
H         10.96644        7.32096        8.35509
H         10.60574        5.59758        8.60633
H          9.52454        7.89751       10.37642
H         10.86101        6.80904       10.79536
H          9.21504        6.15857       10.62102
H          8.02171        2.66401        6.91436
H          8.49694        0.18530        7.40094
H          8.12690       -1.78251        4.09312
H          6.64387       -2.03006        5.00080
H          7.98114       -2.29827        7.12239
H          9.47547       -2.07259        6.19645
H         10.33444       -3.85198        4.74597
H         10.29381       -6.25168        4.11747
H          8.37969       -7.69107        4.80417
H          6.51203       -6.71499        6.13341
H          6.55418       -4.31762        6.76620
