53

C          0.71716        0.10367        0.19202
C          2.24542        0.08485        0.11101
C          2.92645        0.52043        1.41292
C          4.45655        0.48760        1.34508
C          5.13291        0.93058        2.64563
C          6.66343        0.87697        2.58508
C          7.32244        1.32742        3.89657
C          8.83140        1.23718        3.82088
O          9.37844        1.71008        5.11334
C         10.64127        1.41221        5.37238
O         11.42341        0.80937        4.66263
C         11.02140        1.90461        6.78727
N         12.47218        1.93110        6.92741
C         13.19870        0.84640        6.79783
S         14.87326        1.03022        6.67698
C         14.73826        2.86322        6.87127
C         13.22092        3.22591        6.73551
N         12.76780        3.83530        5.52994
C         15.37740        3.30629        8.19599
C         15.54864        4.83308        8.23333
C         16.08903        5.41911        9.49840
C         16.60115        4.83222       10.58701
F         16.72471        3.51234       10.74214
F         17.04829        5.49117       11.63924
F         16.04623        6.77737        9.49875
H          0.26026       -0.21063       -0.75596
H          0.34106        1.11119        0.42375
H          0.35045       -0.57356        0.97762
H          2.58032        0.74134       -0.70979
H          2.58859       -0.92908       -0.15532
H          2.58398       -0.12875        2.23806
H          2.59343        1.54018        1.67492
H          4.80019        1.13172        0.51669
H          4.78829       -0.53426        1.09044
H          4.78041        0.29512        3.47662
H          4.81396        1.95780        2.89355
H          7.02028        1.51067        1.75511
H          6.98340       -0.15128        2.34394
H          6.96454        0.70051        4.72880
H          7.02865        2.36360        4.12716
H          9.25493        1.88399        3.03878
H          9.19072        0.21187        3.65891
H         10.58749        1.22068        7.53095
H         10.62127        2.90830        6.96194
H         12.74337       -0.14353        6.78216
H         15.28381        3.29805        6.02158
H         12.93938        3.87989        7.57435
H         13.16497        3.45364        4.67373
H         12.80767        4.85002        5.53673
H         16.35604        2.81935        8.30273
H         14.76060        2.95389        9.03699
H         14.58134        5.33721        8.05604
H         16.20286        5.14840        7.40037
