71

C          9.05861       -4.26336       -3.93817
C          8.70088       -3.00733       -4.22771
C          9.61076       -1.87086       -3.94434
O         10.71234       -1.93949       -3.42940
O          9.03672       -0.69685       -4.35430
C          9.83297        0.49336       -4.15373
C          9.59951        1.10241       -2.77294
C         10.46862        2.34573       -2.55621
C         10.23610        3.02053       -1.19997
C         11.18644        4.19804       -0.96448
C         10.94352        4.91102        0.38427
C         11.89063        6.03521        0.60519
N         11.60741        7.30916        0.55801
N         12.81463        7.94740        0.71850
C         13.84559        7.08547        0.90249
N         15.13438        7.40709        1.09072
C         16.21756        6.33738        1.14727
C         16.32893        5.62141       -0.25062
C         16.42197        6.58799       -1.44060
C         17.46062        4.57926       -0.30802
C         17.56483        6.99078        1.50895
O         17.44952        7.63285        2.77546
C         15.88326        5.33233        2.27829
C         15.43844        8.85803        0.95462
C         14.68338        9.74643        1.93064
C         14.55767        9.35660        3.27302
C         13.86230       10.14727        4.18552
C         13.28393       11.34571        3.75936
C         13.42114       11.74744        2.43160
C         14.12037       10.96932        1.49302
C         14.26997       11.47939        0.07708
N         13.25516        5.85723        0.81760
H          8.39959       -5.10526       -4.14712
H         10.02935       -4.47134       -3.48487
H          7.74014       -2.76605       -4.68413
H          9.51345        1.17929       -4.95037
H         10.89361        0.23850       -4.29313
H          9.83526        0.34764       -2.00672
H          8.53283        1.35552       -2.66318
H         10.28174        3.07778       -3.36121
H         11.53156        2.06048       -2.64333
H         10.36331        2.27916       -0.39235
H          9.19207        3.37001       -1.13352
H         11.08183        4.93593       -1.77623
H         12.22783        3.83380       -1.01179
H         11.02640        4.19107        1.21555
H          9.92923        5.33071        0.42176
H         12.84280        8.94761        0.91898
H         15.39017        5.05458       -0.37841
H         17.32368        7.21515       -1.39961
H         15.54938        7.25033       -1.51537
H         16.47227        6.01691       -2.37659
H         18.45284        5.04939       -0.34786
H         17.35632        3.97854       -1.22088
H         17.44496        3.88409        0.54143
H         17.89693        7.69315        0.72462
H         18.30411        6.17686        1.54439
H         18.33337        7.88901        3.08031
H         15.24562        4.50049        1.94551
H         15.40430        5.83142        3.12757
H         16.80228        4.86823        2.65279
H         15.23422        9.15732       -0.08441
H         16.51051        8.98318        1.11861
H         15.02065        8.42475        3.59983
H         13.77217        9.82988        5.22452
H         12.73171       11.97075        4.46154
H         12.98032       12.69135        2.10583
H         13.73024       12.42539       -0.04668
H         13.87494       10.78173       -0.67871
H         15.32314       11.66684       -0.18061
H         13.73425        4.96905        0.90366
