69

C          2.22053       -3.05804        8.15312
C          3.68909       -3.02690        7.72464
C          3.91620       -3.55770        6.30538
C          5.37879       -3.49137        5.85471
C          5.61370       -4.05458        4.44983
C          7.06680       -3.93655        3.97733
C          7.29210       -4.55293        2.59224
C          8.68441       -4.34881        2.02099
O          9.64874       -5.02591        2.86642
C         10.95243       -4.97923        2.35475
N         11.72721       -5.90052        3.19306
C         12.66709       -5.54904        4.08685
N         12.77043       -6.18981        5.25890
C         13.98514       -6.19005        6.12850
C         14.42958       -7.60806        6.45692
C         15.57392       -7.63701        7.47956
C         15.87802       -9.06082        7.96715
P         16.98758       -9.04145        9.41980
O         16.68658       -7.96051       10.38316
O         16.85743      -10.48031       10.12195
C         17.21187      -11.73323        9.47241
C         17.34739      -12.79584       10.54492
O         18.43400       -8.99940        8.71166
C         19.60814       -8.68247        9.53480
C         20.05277       -7.25329        9.29733
O         15.00243       -5.50112        5.43506
C         14.50912       -4.27747        4.93676
N         13.54025       -4.52571        3.84732
Br        14.23688       -4.37017        2.08794
H          2.09251       -2.68802        9.17949
H          1.81451       -4.07988        8.11393
H          1.60127       -2.43131        7.49416
H          4.29340       -3.61974        8.43240
H          4.07096       -1.99392        7.79097
H          3.29100       -2.98550        5.59759
H          3.56064       -4.60165        6.24698
H          6.00842       -4.04061        6.57735
H          5.72130       -2.44210        5.88983
H          4.95643       -3.53368        3.73213
H          5.30592       -5.11471        4.42654
H          7.73291       -4.42059        4.71015
H          7.35652       -2.87117        3.95357
H          6.58662       -4.10856        1.87057
H          7.06859       -5.63200        2.61447
H          8.93962       -3.27367        1.97839
H          8.75492       -4.76272        0.99857
H         11.40546       -3.97464        2.41988
H         10.99001       -5.32349        1.30444
H         11.23694       -6.77429        3.37838
H         11.95735       -6.69867        5.59953
H         13.71654       -5.64283        7.05368
H         14.70721       -8.11767        5.52087
H         13.55558       -8.13793        6.87353
H         15.30671       -7.02177        8.35354
H         16.47599       -7.18727        7.04119
H         16.31053       -9.68531        7.17154
H         14.95469       -9.55239        8.31431
H         18.15068      -11.60000        8.91330
H         16.41386      -11.99539        8.75818
H         18.14940      -12.54067       11.24927
H         17.58602      -13.76327       10.08219
H         16.41156      -12.90262       11.10839
H         20.37724       -9.40510        9.23009
H         19.36759       -8.85122       10.59465
H         20.27179       -7.08287        8.23478
H         20.96862       -7.05275        9.87146
H         19.27873       -6.54760        9.62437
H         15.34714       -3.69967        4.53796
H         13.98202       -3.70389        5.72009
