73

C          0.98686       -1.75554       -0.19978
C          2.51350       -1.69756       -0.11238
C          3.02899       -1.57976        1.32532
C          4.55556       -1.51177        1.43074
C          5.05922       -1.39048        2.87207
C          6.58421       -1.30489        2.99019
C          7.06736       -1.12684        4.43293
C          8.58826       -1.00053        4.56338
C          9.04755       -0.78260        6.00918
C         10.56701       -0.61063        6.13936
C         10.97807       -0.36886        7.57883
O         12.42180       -0.17506        7.63204
C         12.89640        0.01785        8.91886
N         14.39166        0.17526        8.78449
C         14.75941        1.51647        8.18334
O         16.09619        1.40344        7.83763
C         16.61721        2.56652        7.13066
C         18.10813        2.37562        6.92334
C         18.73441        3.54041        6.14508
C         20.25601        3.41418        6.00794
C         20.88677        4.54917        5.19445
C         22.41148        4.44834        5.10796
C         15.12951       -0.11742       10.08278
C         15.36475       -1.61189       10.27571
C         16.06630       -1.89419       11.60815
H          0.64428       -1.83736       -1.24038
H          0.52983       -0.85231        0.23131
H          0.58961       -2.62119        0.35092
H          2.88524       -0.84210       -0.70134
H          2.94573       -2.59824       -0.57992
H          2.66027       -2.43793        1.91460
H          2.59141       -0.68096        1.79486
H          4.92359       -0.65261        0.84277
H          4.99489       -2.41018        0.96283
H          4.69566       -2.25181        3.45935
H          4.61003       -0.49567        3.33777
H          6.94989       -0.46192        2.37798
H          7.03863       -2.21377        2.55883
H          6.71705       -1.97718        5.04358
H          6.59209       -0.22805        4.86341
H          8.93923       -0.15991        3.94010
H          9.07126       -1.90569        4.15695
H          8.71726       -1.63389        6.62882
H          8.54176        0.10926        6.41763
H         10.90098        0.23947        5.52345
H         11.08384       -1.50641        5.76053
H         10.71463       -1.22969        8.21978
H         10.48677        0.53217        7.98773
H         12.71655       -0.84769        9.58186
H         12.51313        0.93650        9.40409
H         14.69275       -0.52577        8.08643
H         14.56451        2.28111        8.96058
H         14.09094        1.67223        7.31894
H         16.41421        3.46967        7.73357
H         16.08292        2.66168        6.16852
H         18.27812        1.42998        6.38484
H         18.59514        2.27820        7.90695
H         18.49573        4.49349        6.64796
H         18.27950        3.59922        5.14154
H         20.50402        2.44681        5.53734
H         20.71037        3.38941        7.01384
H         20.60594        5.51685        5.64323
H         20.45686        4.54809        4.17865
H         22.87068        4.49637        6.10655
H         22.83272        5.26657        4.50889
H         22.72382        3.50108        4.64398
H         14.52608        0.32047       10.89097
H         16.08087        0.42382       10.01817
H         15.98387       -1.98495        9.44322
H         14.41132       -2.16240       10.23929
H         17.03315       -1.37663       11.67143
H         16.25556       -2.96859       11.71718
H         15.45127       -1.57562       12.46076
