79

C          0.73641       -0.15434        1.05359
C          2.03428       -0.22740        0.28064
O          3.05588       -0.75308        1.18049
C          4.28870       -0.95109        0.57974
N          5.06389       -1.77158        1.59892
C          6.57891       -1.61327        1.50975
C          7.07057       -2.90841        0.88523
C          6.15931       -3.98041        1.49712
C          4.76013       -3.32605        1.67576
C          3.72806       -3.79969        0.63777
C          4.13985       -3.86274       -0.84633
O          3.13889       -3.15688       -1.56354
C          3.27252       -3.23303       -2.98924
C          1.91697       -2.87133       -3.58274
O          2.11914       -2.72738       -4.97616
C          1.00343       -2.56744       -5.77750
C          1.25638       -2.44176       -7.14937
C          0.19894       -2.28521       -8.03602
C         -1.14137       -2.24612       -7.60259
C         -1.36203       -2.38181       -6.22860
C         -0.31199       -2.53353       -5.31278
C         -2.28144       -2.07995       -8.61995
C         -2.10901       -0.78310       -9.47713
C         -2.21325        0.66655       -8.91227
C         -3.65717        1.05775       -8.53322
C         -1.28778        0.91856       -7.70699
C         -1.76853        1.59356      -10.06551
C         -2.20297       -3.26806       -9.61574
C         -3.66653       -2.15467       -7.95303
C          4.15003       -3.63734        3.09049
C          4.73245       -2.93777        4.36490
F          4.31720       -3.61491        5.45231
F          6.10833       -2.93675        4.34467
F          2.81991       -3.29662        3.11239
F          4.23903       -4.98626        3.25873
H         -0.05928        0.22334        0.39840
H          0.82217        0.52553        1.91075
H          0.43859       -1.14606        1.41750
H          2.35396        0.76837       -0.07100
H          1.96145       -0.90379       -0.58682
H          4.86054       -0.01350        0.45100
H          4.22790       -1.49169       -0.37771
H          4.73886       -1.34522        2.47757
H          6.94582       -1.49411        2.53565
H          6.80710       -0.70632        0.93995
H          8.12696       -3.08210        1.12101
H          6.98093       -2.87002       -0.20899
H          6.55753       -4.31101        2.46247
H          6.07801       -4.87050        0.86384
H          2.81932       -3.19087        0.70648
H          3.43329       -4.80480        0.96812
H          4.19157       -4.90918       -1.19422
H          5.13752       -3.42037       -1.03958
H          3.56335       -4.25265       -3.29502
H          4.04852       -2.53183       -3.34694
H          1.54575       -1.93020       -3.13289
H          1.18693       -3.66830       -3.35836
H          2.28743       -2.47349       -7.50278
H          0.43160       -2.18739       -9.09719
H         -2.37682       -2.36074       -5.83391
H         -0.54586       -2.62429       -4.25263
H         -2.84384       -0.85572      -10.29757
H         -1.12471       -0.86001       -9.96804
H         -4.00445        0.55793       -7.62094
H         -4.36426        0.81551       -9.34025
H         -3.71875        2.14100       -8.35217
H         -1.58666        0.33620       -6.82582
H         -1.31692        1.98330       -7.43005
H         -0.24376        0.65956       -7.93471
H         -2.40462        1.46185      -10.95351
H         -0.72932        1.38982      -10.36348
H         -1.83194        2.64910       -9.76300
H         -1.27104       -3.25656      -10.19724
H         -3.04020       -3.22712      -10.32730
H         -2.25357       -4.22592       -9.07939
H         -3.80156       -1.41937       -7.15108
H         -3.84233       -3.15325       -7.52702
H         -4.45092       -1.97290       -8.70014
H          4.38116       -1.89286        4.44970
