59

C          2.17698        0.25622        0.54554
C          3.48482        0.65267       -0.14213
C          3.97189       -0.37946       -1.18215
C          3.02930       -0.47109       -2.34029
N          2.49862        0.58638       -2.97638
N          1.75228        0.12801       -3.96089
N          1.78473       -1.18597       -3.96030
N          2.60243       -1.60073       -2.94780
C          2.81493       -2.99185       -2.49720
C          1.86811       -3.34881       -1.34613
C          1.86968       -4.85540       -1.02968
C          0.87636       -5.16160        0.06836
C         -0.47884       -5.35806       -0.23660
C         -1.41371       -5.57719        0.77689
C         -1.00262       -5.60258        2.11267
C          0.34517       -5.41248        2.42766
C          1.27786       -5.19237        1.41087
C          1.12440       -1.99961       -5.07998
C          0.06520       -2.96349       -4.44754
C         -1.00566       -2.23792       -3.61743
C         -0.58738       -3.88038       -5.49711
C          0.44645       -0.94912       -6.01146
O          1.35179       -0.16357       -6.75614
C          2.24369       -2.71660       -5.85214
C          5.37525       -0.04677       -1.72451
O          5.71837       -1.08079       -2.64998
H          1.88366        1.01635        1.27986
H          2.27380       -0.69898        1.08189
H          1.34674        0.16252       -0.17025
H          4.28289        0.76060        0.60723
H          3.37722        1.63183       -0.63113
H          4.03644       -1.36867       -0.70341
H          3.87446       -3.05084       -2.21657
H          2.67330       -3.64791       -3.36035
H          0.84593       -3.03604       -1.60165
H          2.14442       -2.78253       -0.44461
H          2.87989       -5.17753       -0.73290
H          1.61014       -5.42189       -1.93952
H         -0.80579       -5.35103       -1.28033
H         -2.46291       -5.73561        0.52430
H         -1.73065       -5.77773        2.90510
H          0.67400       -5.44278        3.46708
H          2.33179       -5.05485        1.66412
H          0.61936       -3.63200       -3.77092
H         -1.71575       -1.68974       -4.25063
H         -0.58177       -1.52289       -2.89804
H         -1.58553       -2.97127       -3.04242
H         -1.21426       -3.32475       -6.20716
H         -1.24242       -4.59596       -4.98362
H          0.14648       -4.46286       -6.06740
H         -0.26406       -0.33276       -5.44337
H         -0.12811       -1.53859       -6.73856
H          1.58214        0.61317       -6.21972
H          2.62905       -3.60207       -5.33281
H          3.06903       -2.02944       -6.06731
H          1.84613       -3.04920       -6.81805
H          6.07511       -0.01483       -0.87281
H          5.36463        0.94450       -2.20947
H          6.60489       -0.90842       -3.00334
