66

C          2.22255        1.36759       -0.45316
C          3.28317        0.29355       -0.40276
O          3.72062        0.16713        0.99986
C          4.71934       -0.68656        1.22937
O          5.22110       -1.44491        0.42269
C          5.11768       -0.64468        2.72034
N          4.59287       -1.90997        3.41384
C          3.09843       -2.11706        3.27826
C          2.30685       -0.94327        3.85335
C          0.83880       -1.25351        4.19283
C         -0.24868       -1.02642        3.06989
C         -0.22693       -1.85346        1.72525
C         -0.35852       -3.42635        1.69663
C         -1.61246       -4.16600        2.31234
C         -3.04185       -3.81486        1.75159
F         -3.05684       -3.88318        0.40991
F         -3.91619       -4.70173        2.24741
F         -3.41286       -2.58049        2.13389
F         -1.39726       -5.48411        2.07175
F         -1.62024       -3.96526        3.65348
F         -0.26589       -3.77234        0.39073
F          0.73707       -3.93706        2.34085
F         -1.19945       -1.34147        0.94053
F          0.98144       -1.58566        1.12122
F         -1.46353       -1.17430        3.63870
F         -0.10914        0.27647        2.67487
F          0.70973       -2.51927        4.69582
F          0.47060       -0.38676        5.18549
C          5.35468       -3.16850        3.01001
C          6.83636       -3.01332        3.31834
C          7.43703       -1.78660        2.62677
C          6.63259       -0.52191        2.98630
C          7.14593        0.73025        2.26664
O          6.45682        1.39757        1.51697
O          8.42179        0.96146        2.58036
C          9.06351        2.12124        1.93902
C         10.56123        1.98596        2.12646
C         11.32088        3.16911        1.50907
C         12.83849        3.03479        1.65491
H          1.87917        1.48365       -1.48977
H          2.61957        2.33360       -0.11680
H          1.35284        1.10601        0.16302
H          4.17276        0.54498       -0.99568
H          2.91458       -0.68865       -0.72940
H          4.59564        0.19664        3.18945
H          4.78543       -1.76663        4.41719
H          2.87539       -3.04172        3.82384
H          2.89856       -2.28884        2.21599
H          2.32829       -0.06888        3.19102
H          2.73727       -0.64188        4.82219
H          5.16922       -3.30808        1.93776
H          4.89539       -3.99270        3.57043
H          7.34358       -3.93134        2.99052
H          6.98619       -2.95375        4.41074
H          7.43853       -1.92819        1.53747
H          8.47637       -1.64129        2.94462
H          6.76122       -0.33304        4.06873
H          8.66084        3.02623        2.41755
H          8.76878        2.13118        0.88075
H         10.89869        1.04418        1.66416
H         10.79116        1.91378        3.20145
H         10.98530        4.10633        1.98277
H         11.05923        3.25576        0.44174
H         13.13608        2.97774        2.71186
H         13.35622        3.89452        1.21055
H         13.20939        2.12837        1.15515
