71

C          0.66889        1.68253       -7.57906
C          2.04283        1.91328       -6.94512
C          2.93757        0.66898       -6.99330
C          4.34417        0.90387       -6.42304
C          5.18142       -0.36228       -6.50165
O          6.58850       -0.11536       -6.13854
C          6.92345       -0.33154       -4.85736
O          6.19126       -0.64311       -3.94898
C          8.43410       -0.15658       -4.61816
N          9.20972        0.19271       -5.80140
N          9.73180       -0.79832       -6.57391
C         10.30680       -0.16457       -7.56557
N         10.16593        1.19589       -7.44420
C          9.45489        1.40931       -6.30961
C          9.09287        2.72015       -5.71041
C         10.09309        3.16545       -4.61735
O         11.39931        3.40424       -5.18147
C         12.34279        2.42441       -4.96068
O         12.06620        1.31731       -4.54974
C         13.72296        2.90707       -5.32641
S         14.10255        2.56580       -7.08787
C          9.62863        4.47108       -3.96730
O         10.60952        4.98332       -3.05667
C         10.77152        4.28302       -1.89046
O         10.08410        3.33371       -1.57667
C         11.94052        4.82479       -1.10534
S         13.50470        4.10302       -1.73690
C         10.64095        2.19017       -8.41990
C          9.57207        2.54867       -9.45716
O          8.98350        1.40041      -10.09223
C          9.78066        0.75729      -11.02191
O         10.93853        1.07028      -11.20029
C          9.02189       -0.32843      -11.73919
C          9.88221       -1.56574      -12.03833
C          9.14902       -2.58655      -12.90992
H          0.04922        2.58765       -7.53013
H          0.12102        0.87808       -7.06701
H          0.75941        1.39924       -8.63815
H          1.92022        2.23332       -5.89719
H          2.55124        2.74575       -7.46085
H          3.02188        0.32399       -8.03866
H          2.44864       -0.15137       -6.44081
H          4.27674        1.23665       -5.37514
H          4.84498        1.70526       -6.99179
H          5.24654       -0.74106       -7.52966
H          4.79469       -1.14948       -5.84157
H          8.82945       -1.10968       -4.24708
H          8.58910        0.59341       -3.83282
H         10.83851       -0.64073       -8.38310
H          8.08607        2.64888       -5.27282
H          9.04159        3.48337       -6.49879
H         10.19013        2.38096       -3.85553
H         14.45832        2.41280       -4.68386
H         13.80016        3.99288       -5.20606
H         14.25937        1.22794       -6.94714
H          8.67520        4.29663       -3.44573
H          9.50439        5.26385       -4.71678
H         11.81850        4.59336       -0.04290
H         12.04446        5.90694       -1.24609
H         13.27836        2.84783       -1.28018
H         11.52213        1.76130       -8.90643
H         10.97124        3.08454       -7.87841
H         10.04294        3.20278      -10.20536
H          8.72350        3.07236       -8.99787
H          8.67369        0.11972      -12.68736
H          8.11660       -0.58247      -11.17021
H         10.18200       -2.03436      -11.08592
H         10.81123       -1.24176      -12.52859
H          8.21747       -2.93175      -12.43816
H          9.77617       -3.46908      -13.09043
H          8.88823       -2.15907      -13.88891
