57

F         -1.77071        0.84671       -0.10612
C         -0.64595        0.14090       -0.19825
C          0.56363        0.66302        0.03665
C          0.86784        2.06675        0.42787
C          1.69627        2.79143       -0.65551
C          2.15123        4.17899       -0.19882
C          1.08899        5.27542       -0.16861
C          0.92062        5.75264       -1.63284
C          2.29744        5.45846       -2.32775
N          3.12162        4.76887       -1.21972
C          3.12505        6.60327       -2.91753
C          2.65864        7.02319       -4.32098
C          3.44487        8.24132       -4.81281
S          2.79952        8.73166       -6.43623
C          3.78627       10.15925       -6.78981
S          5.08922       10.64708       -5.91969
N          3.32883       10.81215       -7.93966
C          2.07095       10.70285       -8.55230
N          1.97525       11.47262       -9.60045
C          3.20427       12.11627       -9.70776
C          4.04552       11.74061       -8.70004
C          0.38907        7.20179       -1.70473
C         -0.92748        7.34642       -0.97039
C         -2.10774        6.81599       -1.51412
C         -3.31618        6.91531       -0.82218
C         -3.36146        7.54850        0.42364
C         -2.19475        8.08788        0.96980
C         -0.98622        7.98648        0.27519
F          1.64864       -0.14672       -0.09816
F         -0.87037       -1.11284       -0.53882
H          1.42838        2.05649        1.37914
H         -0.07798        2.59217        0.61646
H          1.10159        2.85243       -1.57993
H          2.58298        2.17561       -0.88039
H          2.70120        4.09515        0.75019
H          1.43068        6.10867        0.46593
H          0.14365        4.92758        0.26169
H          0.17687        5.10874       -2.12378
H          2.16268        4.68280       -3.09461
H          3.71252        5.47619       -0.76186
H          3.75373        4.05777       -1.60909
H          4.17819        6.28069       -2.99331
H          3.11163        7.46971       -2.23667
H          1.58377        7.25505       -4.31395
H          2.79181        6.17844       -5.01606
H          4.51818        8.02786       -4.91513
H          3.33932        9.09608       -4.12917
H          1.28320       10.07925       -8.13973
H          3.40204       12.81562      -10.51391
H          5.06046       12.00987       -8.43802
H          0.25279        7.49572       -2.75538
H          1.12338        7.89666       -1.26848
H         -2.08914        6.33642       -2.49634
H         -4.22733        6.50804       -1.26165
H         -4.30647        7.63163        0.96059
H         -2.22546        8.59710        1.93356
H         -0.08068        8.42621        0.70044
