76

C          0.67506        0.51238       -1.18510
C          2.07572        0.20749       -0.64770
C          3.09872        1.28470       -1.04190
C          4.53430        0.95361       -0.62831
C          4.79955        0.89460        0.87405
C          6.28522        0.71153        1.20753
C          7.16819        1.79058        0.55618
C          6.95647        1.83715       -0.97350
N          5.45304        2.02633       -1.21645
C          7.46656        0.64423       -1.80222
C          8.85953        0.87708       -2.40924
C          9.41566       -0.36960       -3.10309
C         10.82022       -0.15870       -3.67727
C         11.41202       -1.41782       -4.31852
C         12.83064       -1.21288       -4.85922
C         13.44516       -2.47674       -5.47080
C         14.86885       -2.26338       -5.99111
C          8.66068        1.66179        0.90785
C          8.97765        1.90221        2.38973
C         10.49060        1.88044        2.61993
S         10.82838        2.19298        4.37430
C         12.56663        2.65866        4.34478
S         13.44770        2.74454        2.93468
N         13.05708        2.91744        5.58231
C         12.27505        2.92830        6.82188
C         12.34178        4.32280        7.45439
O         13.68590        4.72700        7.68150
C         14.43425        4.73361        6.46383
C         14.44034        3.35813        5.79785
H         -0.03642       -0.26553       -0.88128
H          0.66605        0.56050       -2.28359
H          0.29886        1.47252       -0.80371
H          2.41540       -0.77043       -1.02655
H          2.03524        0.11859        0.44870
H          2.80159        2.25253       -0.59875
H          3.06371        1.41641       -2.13876
H          4.85445        0.01524       -1.10776
H          4.20974        0.06917        1.29403
H          4.41288        1.81722        1.34393
H          6.62165       -0.29065        0.89494
H          6.41199        0.74663        2.29705
H          6.83223        2.77322        0.94464
H          7.40482        2.76253       -1.37046
H          5.28331        2.08346       -2.22982
H          5.16538        2.93374       -0.82109
H          6.76394        0.43827       -2.62997
H          7.47476       -0.27034       -1.18981
H          9.56448        1.19308       -1.62599
H          8.80565        1.71426       -3.12630
H          8.72890       -0.68679       -3.90740
H          9.44091       -1.20290       -2.37902
H         11.49126        0.18643       -2.87110
H         10.79536        0.65739       -4.42025
H         10.75211       -1.76056       -5.13458
H         11.42116       -2.23321       -3.57405
H         13.48113       -0.85171       -4.04303
H         12.82246       -0.40806       -5.61536
H         12.80138       -2.83304       -6.29279
H         13.44377       -3.28135       -4.71597
H         14.89486       -1.49677       -6.77960
H         15.28446       -3.18790       -6.41444
H         15.54393       -1.93399       -5.18744
H          9.23156        2.39099        0.30964
H          9.02832        0.66468        0.61429
H          8.49187        1.13827        3.01696
H          8.57065        2.87700        2.70574
H         11.01275        2.65784        2.04310
H         10.92710        0.91158        2.33785
H         12.70122        2.18041        7.51151
H         11.23251        2.65276        6.62427
H         11.84624        4.32015        8.43452
H         11.82535        5.04810        6.79463
H         15.45575        5.03280        6.73228
H         14.01550        5.48243        5.76389
H         14.93968        2.62397        6.45134
H         14.94746        3.38410        4.82648
