84

C          1.28123        0.38716        0.80298
C          2.80019        0.24668        0.67083
C          3.25725       -1.19594        0.42596
C          4.77688       -1.34890        0.30230
C          5.23166       -2.79356        0.07190
C          6.75144       -2.94989       -0.04099
C          7.20471       -4.40235       -0.21720
C          8.72654       -4.57274       -0.24662
C          9.17165       -6.03833       -0.22753
C         10.69428       -6.21422       -0.17271
C         11.09084       -7.63560        0.18954
O         12.51659       -7.69996        0.32954
C         12.96977       -8.94478        0.80091
C         14.48009       -8.87543        0.97443
C         15.18039      -10.24071        0.97547
C         16.40106      -10.08871        1.91405
C         15.96655       -8.99139        2.79673
N         14.95551       -8.30850        2.31318
C         14.57092       -7.08975        2.87552
N         15.38174       -6.24268        3.44558
N         14.59803       -5.22622        3.92926
C         13.35063       -5.52440        3.61098
O         13.26153       -6.72857        2.93369
S         11.99527       -4.50935        3.90568
C         10.54875       -5.61315        3.66707
C          9.29966       -4.73132        3.75488
C          8.00343       -5.54779        3.65920
C          6.75485       -4.66354        3.70497
C         17.77684       -9.76601        1.19075
C         17.73954       -8.59372        0.24310
C         17.38043       -8.82584       -1.09708
C         17.23802       -7.77897       -2.00505
C         17.47542       -6.46940       -1.57924
C         17.88355       -6.23187       -0.26766
C         18.03001       -7.27290        0.66350
C         18.51109       -6.94268        2.05464
H          0.98657        1.43024        0.98152
H          0.89554       -0.21434        1.63981
H          0.76772        0.04902       -0.10937
H          3.28696        0.63084        1.58346
H          3.15987        0.88566       -0.15355
H          2.77564       -1.57961       -0.49078
H          2.89161       -1.83724        1.24772
H          5.25768       -0.95817        1.21677
H          5.14253       -0.71417       -0.52379
H          4.75504       -3.18685       -0.84283
H          4.86197       -3.42715        0.89800
H          7.22799       -2.52885        0.86328
H          7.12414       -2.34120       -0.88292
H          6.76928       -4.81592       -1.14291
H          6.78886       -5.01194        0.60441
H          9.16538       -4.05613        0.62578
H          9.14380       -4.06539       -1.13307
H          8.76527       -6.56521       -1.10679
H          8.71688       -6.53136        0.65026
H         11.12416       -5.53017        0.57885
H         11.15230       -5.93719       -1.13461
H         10.75781       -8.35620       -0.58205
H         10.61670       -7.93740        1.14572
H         12.76396       -9.75228        0.06877
H         12.47238       -9.23625        1.74943
H         14.88653       -8.19351        0.21193
H         15.46090      -10.52975       -0.04254
H         14.50089      -11.00968        1.37199
H         16.58522      -10.99285        2.51439
H         16.42034       -8.68182        3.73895
H         10.56611       -6.37752        4.45623
H         10.62831       -6.09828        2.68717
H          9.32524       -3.98490        2.94474
H          9.30794       -4.16723        4.70209
H          7.97148       -6.28185        4.48096
H          8.00961       -6.13181        2.72463
H          6.69317       -4.10564        4.64996
H          5.84138       -5.26565        3.61393
H          6.75331       -3.93065        2.88617
H         18.02347      -10.68627        0.64235
H         18.54288       -9.64465        1.96838
H         17.22654       -9.85310       -1.43607
H         16.96044       -7.98283       -3.03906
H         17.37177       -5.63682       -2.27549
H         18.11260       -5.21188        0.04689
H         19.04016       -5.98195        2.05543
H         19.20180       -7.69741        2.45457
H         17.68062       -6.82621        2.76994
