62

C          4.29459       -4.69675       -3.77060
C          5.01929       -3.69497       -2.86854
C          5.64374       -2.52538       -3.63769
C          6.36425       -1.51768       -2.73528
C          6.98794       -0.35008       -3.50943
C          7.66049        0.65912       -2.59478
O          8.21078        1.71788       -3.39842
C          8.71477        2.78855       -2.64309
C          9.15860        3.88583       -3.61644
C          9.70356        5.15995       -2.94709
C         10.42122        6.08210       -3.95642
C         11.11562        7.29599       -3.32869
C         11.83153        8.18273       -4.35430
C         12.47806        9.41998       -3.72204
C         13.15432       10.35240       -4.73196
C         13.78638       11.59009       -4.08399
C         14.44801       12.53353       -5.09095
C          8.55719        5.84642       -2.19416
N          7.38476        5.98863       -3.06922
C          7.16083        5.26282       -4.16991
N          6.09627        5.49752       -4.95063
N          8.02277        4.27109       -4.52073
C          7.84825        3.62114       -5.69266
C          7.70115        3.06217       -6.75456
H          3.85986       -5.51964       -3.18757
H          4.97955       -5.13941       -4.50888
H          3.47588       -4.21593       -4.32654
H          5.80741       -4.21494       -2.29830
H          4.31517       -3.29913       -2.11702
H          4.85682       -2.00425       -4.21127
H          6.35328       -2.91817       -4.38689
H          7.14844       -2.03956       -2.16024
H          5.65080       -1.12616       -1.98897
H          6.21331        0.16878       -4.09774
H          7.73066       -0.72814       -4.23011
H          8.46810        0.18714       -2.00358
H          6.93012        1.08800       -1.88034
H          9.59530        2.49496       -2.03540
H          7.94273        3.16644       -1.94039
H          9.91447        3.46603       -4.29365
H         10.43348        4.83895       -2.18739
H          9.71282        6.42809       -4.72883
H         11.16864        5.47469       -4.49191
H         11.83850        6.95299       -2.56856
H         10.38324        7.92140       -2.78922
H         11.10940        8.50122       -5.12679
H         12.59877        7.59109       -4.88222
H         13.21785        9.09927       -2.96805
H         11.70882        9.98609       -3.16691
H         12.41426       10.67342       -5.48640
H         13.92844        9.79443       -5.28731
H         14.53051       11.26662       -3.33677
H         13.01185       12.13754       -3.52021
H         15.25207       12.02754       -5.64554
H         14.88889       13.40705       -4.59231
H         13.72141       12.90481       -5.82897
H          8.85051        6.85205       -1.86901
H          8.27043        5.27797       -1.29695
H          6.67546        6.66402       -2.80488
H          5.51099        6.31272       -4.82220
H          5.97766        4.93602       -5.79001
H          7.58216        2.54567       -7.68487
