49

C          4.64166       -0.34290        1.98156
C          4.06059       -0.63896        0.61512
O          4.55697        0.34754       -0.31638
C          4.10725        0.14955       -1.63641
C          4.65650        1.28879       -2.48709
S          6.42875        1.58462       -2.11903
C          7.27947       -0.03301       -2.42716
C          7.13424       -0.55553       -3.87184
O          7.62418       -1.88290       -3.95593
C          8.74076        0.08365       -1.96618
C          8.93398        0.25097       -0.45811
C          6.92421        2.64763       -3.53280
C          6.34966        4.06340       -3.41898
C          6.81965        4.86911       -2.19217
C          6.23285        6.26461       -2.18334
C          4.99557        6.51377       -1.57149
C          4.42756        7.78967       -1.59993
C          5.09414        8.83751       -2.24088
C          6.33098        8.60256       -2.84747
C          6.89535        7.32479       -2.81881
H          4.26885       -1.07568        2.70898
H          4.34901        0.65791        2.32359
H          5.73794       -0.40320        1.96822
H          2.95712       -0.59264        0.62948
H          4.35220       -1.64661        0.26406
H          3.00234        0.17203       -1.70815
H          4.43447       -0.83374       -2.03155
H          4.17954        2.24067       -2.21681
H          4.52429        1.10608       -3.56096
H          6.73270       -0.69530       -1.73488
H          7.76070        0.04269       -4.54977
H          6.09125       -0.48554       -4.22365
H          6.92171       -2.50848       -3.71857
H          9.24512        0.89269       -2.52026
H          9.21857       -0.84776       -2.30601
H          8.47631        1.17299       -0.07376
H         10.00313        0.29012       -0.21572
H          8.49972       -0.59553        0.09204
H          6.61454        2.15149       -4.46173
H          8.02336        2.65974       -3.48263
H          5.24966        4.03800       -3.45558
H          6.65960        4.58744       -4.33707
H          7.92036        4.92360       -2.19716
H          6.53262        4.34717       -1.26464
H          4.47585        5.70438       -1.05125
H          3.46848        7.96887       -1.11241
H          4.65568        9.83563       -2.25877
H          6.86292        9.41830       -3.33845
H          7.86837        7.15451       -3.28654
