52

C          0.62813        0.15846       -1.29215
C          2.06658       -0.18343       -1.68699
C          2.67876       -1.30272       -0.83713
C          4.12160       -1.64309       -1.22266
C          4.75383       -2.71791       -0.33351
C          6.21909       -3.00063       -0.67929
C          6.86260       -4.01327        0.27574
C          8.36234       -4.20183        0.05277
N          8.88276       -5.37035        0.79675
C         10.03287       -5.10048        1.41664
N         10.75390       -5.99397        2.10576
N         10.36106       -3.80821        1.29768
C          9.34731       -3.03597        0.52840
C          9.98647       -2.33394       -0.68878
C         10.82799       -3.17197       -1.65170
C         12.09763       -3.82876       -1.30294
O         10.89880       -4.60718       -1.49046
C          8.68102       -2.03531        1.48504
C          8.38413       -2.40654        2.80558
C          7.74745       -1.49395        3.64892
N          7.39523       -0.25713        3.27366
C          7.68467        0.09801        2.01592
C          8.31790       -0.74173        1.09398
H          0.22225        0.96633       -1.91578
H          0.56850        0.48666       -0.24392
H         -0.03494       -0.71186       -1.40404
H          2.69650        0.71855       -1.60252
H          2.09885       -0.47553       -2.75027
H          2.05334       -2.20914       -0.91830
H          2.64693       -1.00889        0.22721
H          4.73631       -0.72613       -1.17159
H          4.15398       -1.97048       -2.27681
H          4.16953       -3.65189       -0.40407
H          4.69170       -2.39863        0.72167
H          6.76943       -2.04711       -0.64939
H          6.29947       -3.36965       -1.71607
H          6.38147       -4.99535        0.13160
H          6.67061       -3.73021        1.32104
H          8.55109       -4.37585       -1.01636
H          8.62844       -6.31419        0.52275
H         10.46156       -6.96056        2.17344
H         11.67188       -5.75974        2.46092
H         10.95613       -3.34125        1.97536
H         10.59873       -1.48747       -0.33990
H          9.16134       -1.89499       -1.26775
H         10.71583       -2.86882       -2.69807
H         12.46387       -3.78116       -0.27288
H         12.86374       -3.96604       -2.07054
H          8.62595       -3.39782        3.19208
H          7.50569       -1.77427        4.67781
H          7.39812        1.11100        1.72157
H          8.51280       -0.36403        0.09156
