92

O          3.38967       -4.50186        1.61181
C          3.47399       -3.13484        2.06718
C          3.51426       -2.20577        0.87338
O          4.76970       -2.34346        0.19639
C          4.69463       -2.09132       -1.19575
C          6.00667       -2.52223       -1.86685
N          6.61491       -3.75076       -1.31402
C          5.85939       -4.73046       -0.78982
N          6.31931       -5.43558        0.26622
N          4.67732       -5.07918       -1.33273
C          4.36645       -5.06363       -2.76990
C          3.61430       -6.33015       -3.18487
P          3.49359       -6.44143       -5.00700
O          4.81239       -6.31281       -5.67368
O          2.69662       -7.79880       -5.30369
C          3.36725       -8.98473       -5.84859
C          2.61894       -9.46319       -7.07471
O          2.39797       -5.30625       -5.27784
C          1.96418       -5.00789       -6.64834
C          2.83393       -3.94345       -7.28848
C          8.07829       -3.72179       -1.09286
C          8.55735       -2.89970        0.10984
C         10.08854       -2.87554        0.19502
C         10.62332       -2.01867        1.34743
C         12.15381       -1.95842        1.39149
C         12.70279       -1.04096        2.48848
C         14.23072       -0.92816        2.47626
C         14.78533        0.06072        3.50622
C         16.30961        0.20426        3.45335
C         16.86364        1.26056        4.41449
C         18.38358        1.42949        4.32820
C         18.93394        2.52549        5.24577
C         20.44851        2.72002        5.13023
C         20.99793        3.82636        6.03618
C         22.50895        4.02447        5.89940
H          3.03142       -5.03145        2.34004
H          4.37571       -2.98952        2.68708
H          2.59176       -2.87412        2.67391
H          3.37622       -1.16353        1.21256
H          2.68441       -2.45867        0.18894
H          4.55348       -1.01559       -1.41362
H          3.82773       -2.62363       -1.62412
H          6.76024       -1.73907       -1.71674
H          5.84289       -2.60749       -2.95306
H          6.89204       -4.97225        0.96302
H          5.81357       -6.26182        0.56079
H          3.97401       -5.43056       -0.68471
H          5.31715       -5.00496       -3.31685
H          3.76754       -4.17827       -3.03452
H          2.60535       -6.37141       -2.74948
H          4.16763       -7.22690       -2.86780
H          3.35389       -9.74034       -5.04978
H          4.40796       -8.72227       -6.08348
H          1.56883       -9.67954       -6.83909
H          3.08357      -10.38585       -7.44973
H          2.65485       -8.71468       -7.87729
H          0.92411       -4.67491       -6.53928
H          1.96428       -5.94054       -7.23167
H          2.81569       -3.01622       -6.70022
H          2.44912       -3.71498       -8.29241
H          3.87151       -4.28679       -7.38347
H          8.52110       -3.31584       -2.01522
H          8.41731       -4.76381       -1.01071
H          8.14236       -3.30410        1.05001
H          8.17389       -1.86918        0.03783
H         10.49478       -2.49272       -0.75722
H         10.46944       -3.90668        0.29400
H         10.24092       -2.40867        2.30692
H         10.22259       -0.99443        1.25320
H         12.52745       -1.61022        0.41261
H         12.55825       -2.97682        1.52511
H         12.36631       -1.40158        3.47616
H         12.26589       -0.03390        2.36798
H         14.56008       -0.61867        1.46872
H         14.67420       -1.92480        2.64621
H         14.47885       -0.24984        4.52033
H         14.32367        1.05015        3.33998
H         16.61142        0.46273        2.42290
H         16.77816       -0.77183        3.66934
H         16.58114        1.00100        5.44988
H         16.37940        2.23034        4.20298
H         18.66280        1.65823        3.28450
H         18.87371        0.46980        4.56852
H         18.67445        2.29070        6.29314
H         18.42720        3.47934        5.01553
H         20.70640        2.94974        4.08108
H         20.95968        1.76975        5.36528
H         20.74960        3.59177        7.08509
H         20.47925        4.77258        5.80692
H         23.05545        3.10288        6.14935
H         22.87471        4.81887        6.56450
H         22.78188        4.30036        4.86985
