90

C         11.88735        8.36819        3.22809
C         12.12334        7.03523        2.51376
C         12.65051        5.93389        3.44071
C         12.87563        4.59282        2.73576
C         13.38298        3.48367        3.66340
C         13.55977        2.13507        2.95843
C         14.03214        1.00771        3.88234
C         14.12114       -0.35203        3.18190
C         14.54769       -1.49591        4.10729
C         14.56802       -2.86399        3.41791
C         14.96037       -4.01254        4.35399
C         14.89182       -5.39005        3.68094
C         15.38620       -6.55867        4.54735
C         14.50551       -6.78914        5.78143
N         14.99484       -7.89199        6.62996
C         14.55420       -9.15583        6.55576
N         15.24102       -9.89610        7.43930
C         16.15740       -9.08926        8.08556
C         16.00925       -7.81666        7.59035
C         16.69311       -6.53092        7.92360
C         17.76371       -6.65807        9.03171
O         18.15473       -7.74454        9.45285
N         18.22940       -5.46569        9.47809
C         19.31313       -5.35968       10.46139
C         20.71276       -5.31657        9.83500
C         20.96631       -4.10804        8.92615
C         22.39312       -4.06783        8.37214
C         15.10046      -11.34576        7.60651
O         15.72592      -11.94611        6.51201
C         15.68915      -13.39185        6.57427
C         16.37157      -13.94179        5.33457
C         16.39077      -15.47554        5.31317
C         17.08514      -16.04860        4.07141
C         17.10975      -17.57864        4.04926
H         11.50965        9.13512        2.53801
H         12.81650        8.75254        3.67489
H         11.15197        8.26144        4.03969
H         12.83479        7.18191        1.68344
H         11.18298        6.69551        2.04722
H         11.94115        5.79206        4.27552
H         13.59574        6.26878        3.90364
H         13.59113        4.73089        1.90604
H         11.93075        4.26695        2.26586
H         12.67787        3.36334        4.50499
H         14.34186        3.79260        4.11572
H         14.27417        2.24784        2.12412
H         12.60102        1.84268        2.49487
H         13.34118        0.92852        4.74048
H         15.01610        1.26854        4.31030
H         14.82491       -0.28430        2.33406
H         13.13906       -0.59347        2.73872
H         13.86037       -1.53668        4.97142
H         15.54674       -1.27843        4.52502
H         15.26307       -2.83844        2.56106
H         13.57066       -3.06976        2.99146
H         14.29661       -3.98201        5.23633
H         15.98375       -3.84192        4.73457
H         15.50182       -5.37436        2.76424
H         13.85863       -5.58896        3.34761
H         16.42491       -6.37057        4.86386
H         15.40529       -7.48605        3.95388
H         13.47710       -7.04026        5.48762
H         14.44976       -5.89422        6.41411
H         13.78258       -9.52028        5.88744
H         16.84386       -9.45321        8.83886
H         15.94579       -5.77785        8.22563
H         17.18754       -6.12753        7.02346
H         17.88542       -4.61255        9.05095
H         19.22199       -6.22614       11.12857
H         19.12482       -4.45331       11.05551
H         20.88289       -6.25283        9.27888
H         21.44155       -5.31466       10.66217
H         20.76230       -3.17975        9.48757
H         20.25313       -4.12013        8.08331
H         23.13278       -4.00571        9.18339
H         22.54555       -3.20023        7.71671
H         22.62000       -4.97175        7.78780
H         14.02158      -11.58754        7.66046
H         15.57182      -11.60777        8.57103
H         14.63603      -13.72688        6.63172
H         16.20357      -13.72767        7.49401
H         17.40088      -13.55111        5.29448
H         15.85134      -13.55861        4.44197
H         15.35707      -15.86009        5.36124
H         16.89794      -15.85185        6.21852
H         18.11653      -15.66097        4.02323
H         16.57772      -15.67286        3.16705
H         17.64132      -17.98361        4.92291
H         17.61462      -17.95632        3.15029
H         16.09211      -17.99615        4.05796
