37

O          5.85302       -3.13861        6.87641
C          7.20335       -2.65907        6.82303
C          7.66319       -2.80890        5.38342
N          6.77938       -2.03425        4.50083
C          7.02227       -2.25789        3.08345
C          6.21828       -1.25769        2.25222
C          6.50192        0.18806        2.70305
N          6.01593        1.13574        1.63019
C          4.52940        1.40701        1.72075
O          4.19335        2.05770        0.54592
C          2.79419        1.95060        0.15710
C          1.86688        2.77863        1.02940
C          6.80198        2.40979        1.56325
O          6.48687       -1.34879        0.84403
H          5.53256       -3.08121        7.78884
H          7.86526       -3.24718        7.48070
H          7.25455       -1.59800        7.12615
H          7.67503       -3.88619        5.12154
H          8.69305       -2.43039        5.28903
H          5.82014       -2.30335        4.73843
H          6.78730       -3.28335        2.72931
H          8.09782       -2.08859        2.88705
H          5.14224       -1.47735        2.36211
H          7.58363        0.34869        2.80389
H          6.02651        0.43700        3.65827
H          6.16244        0.60594        0.74507
H          4.37807        2.01142        2.63432
H          4.01761        0.43433        1.82723
H          2.51316        0.88259        0.15637
H          2.78904        2.30536       -0.88033
H          1.81467        2.40577        2.06204
H          0.84903        2.73810        0.61801
H          2.18184        3.83024        1.04800
H          6.73319        2.91874        2.53149
H          6.38184        3.03669        0.77159
H          7.84563        2.16370        1.34158
H          7.33899       -1.79354        0.70066
