60

O          1.80358        0.49805        0.84286
C          1.73960        1.56471       -0.10574
C          2.56720        1.14608       -1.31843
C          4.03538        0.82652       -0.96396
C          4.85744        2.08138       -0.62246
C          5.22297        2.64975       -1.98823
N          5.46809        1.41965       -2.86560
C          4.86799        0.18791       -2.09930
C          4.15415       -0.71708       -3.09103
C          3.61695       -2.00764       -2.46035
C          2.75324       -2.81807       -3.43343
S          3.66241       -3.57486       -4.81345
C          3.23791       -2.56242       -6.23813
S          2.40007       -1.11504       -6.13352
N          3.66897       -3.09816       -7.40375
C          3.46279       -2.39076       -8.68079
C          2.15408       -2.77755       -9.37086
C          4.33464       -4.40803       -7.50977
C          5.86294       -4.32129       -7.48067
C          6.91797        1.32800       -3.28754
C          7.24897        0.17595       -4.25025
C          8.65232        0.37462       -4.88929
N          9.66995       -0.11622       -3.95458
O          7.21644       -1.07710       -3.59679
H          1.21638        0.70167        1.58639
H          2.12278        2.50546        0.33463
H          0.70172        1.75299       -0.42944
H          2.49016        1.94083       -2.07926
H          2.08937        0.25861       -1.75468
H          4.02890        0.13237       -0.11259
H          5.76383        1.81422       -0.05963
H          4.30693        2.81535       -0.02173
H          6.12064        3.27669       -1.99895
H          4.39783        3.21492       -2.43811
H          4.90930        1.50909       -3.72443
H          5.74388       -0.32203       -1.67510
H          4.84692       -1.00666       -3.89214
H          3.32685       -0.17480       -3.57554
H          2.99206       -1.78665       -1.57967
H          4.45912       -2.61781       -2.09738
H          1.96594       -2.19703       -3.89013
H          2.28570       -3.66420       -2.91282
H          4.32560       -2.63105       -9.31974
H          3.47924       -1.31476       -8.46760
H          2.10313       -3.85611       -9.57420
H          2.07299       -2.25151      -10.33152
H          1.29350       -2.49687       -8.75107
H          3.99513       -4.86055       -8.45276
H          3.96396       -5.05549       -6.70342
H          6.24575       -3.69999       -8.30186
H          6.29278       -5.32591       -7.59284
H          6.21852       -3.90179       -6.53043
H          7.50813        1.24595       -2.36376
H          7.14102        2.29121       -3.76939
H          6.49903        0.16514       -5.06184
H          8.79859        1.42013       -5.20890
H          8.68357       -0.24841       -5.79208
H         10.07869        0.62358       -3.38609
H         10.43338       -0.58631       -4.43526
H          8.16329       -1.22363       -3.34671
