69

N          1.29860        2.41438       -1.44281
C          2.66969        1.90231       -1.41529
C          3.39694        2.40071       -0.16378
C          4.81137        1.82859       -0.03095
C          5.52360        2.36149        1.21839
C          7.00495        1.94640        1.36067
C          7.52969        2.61643        2.64315
N          9.05040        2.66854        2.67195
C          9.64070        3.27351        1.41284
C          9.08278        2.54490        0.19116
O          7.65865        2.56696        0.23077
C          9.52375        3.24107       -1.09306
C          8.95886        2.52692       -2.32628
C          9.51274        2.98417       -3.67892
C          8.77660        4.15805       -4.43706
C          8.66977        5.60822       -3.81861
C          9.94399        6.47496       -3.46173
C         11.03185        6.86086       -4.54387
C         10.66372        7.69903       -5.83447
C         10.04950        9.15455       -5.73017
C         10.84572       10.26382       -4.94579
F         12.13101       10.30263       -5.33319
F         10.27635       11.45321       -5.20053
F         10.79411       10.04382       -3.61764
F          9.93337        9.58082       -7.01266
F          8.80697        9.07173       -5.18830
F         11.82360        7.79606       -6.53159
F          9.78354        6.97047       -6.56832
F         11.98494        7.55203       -3.86283
F         11.58765        5.70693       -4.99074
F          9.46518        7.61843       -2.91184
F         10.62930        5.80667       -2.48399
F          7.89849        6.33062       -4.66055
F          7.98507        5.48484       -2.63255
F          9.32606        4.26980       -5.66778
F          7.47628        3.75587       -4.58257
F         10.84672        3.28489       -3.59022
F          9.40185        1.92580       -4.54647
C          7.11970        0.39448        1.34899
C          8.31447       -0.29702        2.02820
C          8.22555       -1.82030        1.93181
F          7.10115       -2.29151        2.52239
F          8.21896       -2.23215        0.64060
F          9.28877       -2.39300        2.54488
H          0.76256        1.97732       -2.19191
H          1.28830        3.41858       -1.62721
H          3.27265        2.16195       -2.31099
H          2.61359        0.80200       -1.38620
H          2.78986        2.13898        0.71788
H          3.44748        3.50375       -0.18840
H          5.40294        2.08674       -0.92323
H          4.75095        0.72871        0.00018
H          4.98243        2.03930        2.12405
H          5.49361        3.46299        1.20216
H          7.20342        2.09765        3.55406
H          7.19213        3.66009        2.68236
H          9.41851        1.71361        2.79297
H          9.35688        3.20615        3.49307
H         10.73309        3.19664        1.48862
H          9.34358        4.33107        1.40098
H          9.45554        1.50167        0.17642
H         10.62292        3.24407       -1.13371
H          9.19227        4.28599       -1.05258
H          7.86427        2.59373       -2.35487
H          9.21231        1.45641       -2.27947
H          7.07489        0.08423        0.29605
H          6.20895        0.00056        1.82289
H          8.35889       -0.08627        3.11052
H          9.28472       -0.04346        1.57445
