43

C          3.56170       -0.92184       -0.89379
C          2.73644       -0.18214        0.13200
O          1.66621       -0.59017        0.53246
N          3.28270        0.98329        0.75000
C          2.88875        1.41758        2.13639
C          4.15094        2.20840        2.54255
N          4.70751        2.60973        1.24260
C          4.21061        1.86057        0.25352
N          4.59568        1.97760       -1.01979
C          3.68713        1.98665       -2.16934
C          3.66861        3.43294       -2.75330
N          5.08479        3.85788       -2.85051
N          2.88222        3.35729       -3.97644
N          3.04925        4.30337       -1.76088
Si         2.42191        0.07308        3.47945
C          3.55593       -1.40877        3.24095
C          2.81331        0.94044        5.11057
C          0.59690       -0.33997        3.46267
H          3.62446       -1.95975       -0.54098
H          4.57141       -0.52794       -1.03992
H          3.02634       -0.94921       -1.85202
H          2.03602        2.11091        2.03353
H          4.88844        1.59499        3.08470
H          3.91199        3.08740        3.15040
H          5.22087        3.46763        1.07228
H          5.33643        2.67481       -1.20652
H          2.67082        1.70369       -1.87568
H          4.03853        1.27639       -2.93249
H          5.50456        3.50260       -3.71093
H          5.16670        4.87528       -2.88212
H          3.29316        2.74201       -4.68072
H          2.75094        4.27832       -4.39645
H          3.20508        5.28792       -1.98573
H          2.03828        4.15730       -1.77427
H          4.60376       -1.11025        3.09266
H          3.24638       -2.03217        2.39264
H          3.52531       -2.03992        4.14032
H          3.88285        1.13801        5.26410
H          2.48439        0.29168        5.93531
H          2.26727        1.88932        5.21267
H          0.30174       -0.89233        2.56511
H         -0.00955        0.57510        3.52296
H          0.35816       -0.94871        4.34677
