45

C          1.12488        1.91852        3.32203
O          2.42827        1.52817        2.88608
C          2.42740        0.96132        1.60402
C          3.89067        0.74934        1.18693
N          3.93195        0.09422       -0.13646
C          4.03573       -1.24859       -0.19633
N          4.11145       -1.87741       -1.37722
C          3.76058       -1.30199       -2.68311
C          2.90522       -2.26704       -3.52377
C          1.62603       -2.73501       -2.79009
C          0.70679       -1.62525       -2.26566
C          2.61316       -1.61182       -4.88172
N          4.04747       -1.94209        0.95402
C          4.21941       -1.33657        2.30319
O          4.67860        0.00880        2.09314
N          5.10927       -2.11754        3.06384
C          6.50356       -2.16169        2.60793
C          4.97600       -1.94563        4.51502
H          1.24654        2.34969        4.32134
H          0.44410        1.05088        3.37864
H          0.68905        2.67596        2.64787
H          1.96178        1.62946        0.85107
H          1.86017        0.00613        1.56986
H          4.39110        1.72255        1.09639
H          4.27016        0.62795       -0.92969
H          4.31907       -2.87182       -1.35601
H          4.67941       -1.03677       -3.22949
H          3.19610       -0.37548       -2.50306
H          3.51964       -3.16627       -3.71673
H          1.90295       -3.39761       -1.95301
H          1.06485       -3.37509       -3.48754
H          1.18208       -1.02468       -1.47427
H         -0.20433       -2.05807       -1.83283
H          0.39036       -0.93627       -3.06069
H          2.01550       -0.69480       -4.77497
H          2.05259       -2.30047       -5.52657
H          3.54023       -1.34504       -5.40837
H          3.96638       -2.95437        0.93536
H          3.24480       -1.31892        2.81866
H          6.54458       -2.31943        1.52266
H          7.00117       -3.01100        3.09289
H          7.06318       -1.24183        2.84822
H          3.91473       -1.96946        4.79467
H          5.41652       -0.99993        4.87677
H          5.48003       -2.78072        5.01776
