76

C         11.00600        3.48880        8.34957
C         10.90205        2.89316        6.94312
C         11.33700        3.86226        5.83810
C         11.24364        3.26919        4.42903
C         11.64444        4.24579        3.31881
C         11.62371        3.61941        1.92108
C         11.96503        4.60093        0.79516
C         12.09362        3.92570       -0.57351
C         12.42084        4.89039       -1.71860
C         12.76759        4.16463       -3.02192
C         13.08293        5.10066       -4.19612
C         13.59633        4.30804       -5.39386
O         13.77058        5.07321       -6.60300
C         14.81567        6.01286       -6.56087
C         15.34332        6.24855       -7.95084
C         14.91787        5.41922       -8.99372
C         15.45069        5.56412      -10.26597
C         15.10118        4.72220      -11.46453
O         15.92515        5.13394      -12.52889
C         15.73772        4.38295      -13.75003
C         16.73983        4.87550      -14.77906
C         16.62753        4.10809      -16.10012
N         16.37729        6.52497      -10.46656
C         16.79813        7.36899       -9.49453
C         16.29352        7.27610       -8.20705
C         16.70828        8.26700       -7.15615
C         15.78103        9.50992       -7.13237
C         15.75745       10.17228       -5.74930
N         15.11030        9.27947       -4.77622
H         10.68590        2.77062        9.11702
H         10.37672        4.38563        8.45114
H         12.04003        3.78448        8.58258
H          9.86364        2.57188        6.75418
H         11.51537        1.97781        6.88400
H         12.37491        4.18922        6.02799
H         10.71955        4.77649        5.89283
H         10.21275        2.91713        4.24783
H         11.88237        2.36995        4.37060
H         12.65612        4.63857        3.52412
H         10.97127        5.12097        3.34121
H         10.62929        3.17880        1.73041
H         12.33544        2.77525        1.89434
H         12.91364        5.11430        1.03331
H         11.19602        5.39198        0.75080
H         11.16119        3.38323       -0.80847
H         12.88261        3.15491       -0.51638
H         13.27222        5.52998       -1.42546
H         11.56988        5.57313       -1.88504
H         11.93660        3.49534       -3.30416
H         13.63523        3.50689       -2.83775
H         13.83355        5.84550       -3.88066
H         12.18053        5.65981       -4.49276
H         12.87634        3.52598       -5.67347
H         14.55401        3.81118       -5.14513
H         15.66255        5.64480       -5.94104
H         14.51086        6.97194       -6.09684
H         14.17746        4.64791       -8.78560
H         14.02527        4.85201      -11.69945
H         15.25310        3.65330      -11.21509
H         14.69891        4.52262      -14.10172
H         15.88601        3.30885      -13.53371
H         17.75397        4.76614      -14.36388
H         16.57673        5.95102      -14.95039
H         16.80736        3.03283      -15.95956
H         17.36688        4.47483      -16.82266
H         15.63383        4.22719      -16.55506
H         16.75275        6.56694      -11.42230
H         17.54544        8.10526       -9.78714
H         17.74700        8.58450       -7.32693
H         16.67132        7.79781       -6.16257
H         14.75213        9.21561       -7.39837
H         16.10076       10.23283       -7.89806
H         15.26975       11.15975       -5.83371
H         16.78841       10.35965       -5.41232
H         14.09663        9.39759       -4.80258
H         15.39935        9.50487       -3.82515
