81

C          3.41204       -2.83670       -3.00692
C          4.09472       -1.86627       -2.03995
C          4.63694       -2.54586       -0.77679
C          5.37943       -1.58141        0.15529
C          5.90595       -2.25490        1.43233
C          6.73619       -1.28047        2.25250
O          7.21360       -1.87603        3.51958
C          8.34716       -2.56188        3.46741
O          9.03025       -2.78198        2.48168
C          8.74906       -3.08336        4.85633
N          9.97929       -3.83074        4.65566
C         10.88125       -4.20441        5.57916
N         10.51694       -4.27844        6.87113
C         11.40288       -4.13671        8.04167
C         10.57812       -4.07390        9.33003
C          9.63444       -2.89017        9.44760
F          8.60365       -2.99299        8.46609
N         12.13004       -4.49744        5.15749
C         13.04323       -5.53692        5.68361
C         12.41554       -6.92239        5.87102
C         11.69239       -7.43401        4.61121
S         11.78752       -9.22482        4.38522
C         13.38523       -9.37809        3.54993
S         14.27126       -8.04996        3.04784
N         13.76689      -10.65932        3.36437
C         12.93065      -11.80877        3.76360
C         11.86245      -12.22302        2.73829
C         12.40037      -12.70830        1.38750
C         11.28937      -13.19595        0.45382
C         15.06844      -10.95956        2.72626
C         16.27617      -10.80637        3.66008
C         16.25046      -11.67918        4.91883
C         17.49838      -11.48831        5.78504
H          3.03406       -2.31471       -3.89626
H          2.55858       -3.34335       -2.53248
H          4.10914       -3.61512       -3.35113
H          3.38583       -1.07296       -1.74930
H          4.92353       -1.35480       -2.55830
H          5.31720       -3.36577       -1.06654
H          3.80396       -3.02117       -0.22995
H          4.71202       -0.74583        0.42772
H          6.22391       -1.13083       -0.39446
H          6.52403       -3.12521        1.16153
H          5.06552       -2.62516        2.04050
H          6.14504       -0.42069        2.59014
H          7.61509       -0.92879        1.69627
H          7.93126       -3.70811        5.25115
H          8.88560       -2.23318        5.54266
H         10.21262       -3.90774        3.65921
H          9.53764       -4.07803        7.06842
H         12.02042       -3.23052        7.92627
H         12.08301       -4.99656        8.10444
H         11.28275       -4.02098       10.17431
H         10.01026       -5.00856        9.46102
H         10.13798       -1.92781        9.27050
H          9.13456       -2.86822       10.42494
H         12.30932       -4.23406        4.19336
H         13.51546       -5.18758        6.61260
H         13.83927       -5.61646        4.93206
H         11.73218       -6.94351        6.73420
H         13.24779       -7.59660        6.11810
H         12.13495       -7.00244        3.69795
H         10.61559       -7.21325        4.63101
H         12.45635      -11.57026        4.72823
H         13.61618      -12.64560        3.95200
H         11.16288      -11.38713        2.57971
H         11.27210      -13.02741        3.20880
H         13.12641      -13.52293        1.55101
H         12.95518      -11.89365        0.89468
H         10.73581      -14.03772        0.89491
H         11.69750      -13.53418       -0.50783
H         10.56485      -12.39576        0.24364
H         15.17963      -10.29109        1.86163
H         15.00151      -11.99051        2.35582
H         16.37617       -9.74755        3.94184
H         17.16917      -11.04814        3.05979
H         16.15657      -12.74212        4.63688
H         15.35556      -11.43839        5.51713
H         18.41220      -11.75240        5.23290
H         17.46239      -12.11445        6.68659
H         17.60018      -10.44188        6.10889
