65

C          0.61738        7.04014        0.88380
C          2.12460        6.77586        0.86710
C          2.69019        6.57076       -0.54215
C          4.20505        6.34708       -0.56491
C          4.76254        6.10443       -1.97065
C          6.28853        5.93938       -1.99178
C          6.79947        5.61248       -3.38877
O          8.24397        5.52522       -3.48736
C          8.78975        4.37802       -2.84927
C         10.28393        4.57350       -2.93052
C         11.06392        3.95846       -3.92577
C         12.43398        4.24670       -3.90590
N         12.92453        5.08273       -2.98616
N         12.23024        5.72197       -2.05506
C         10.91678        5.47931       -2.03005
C         10.15691        6.25555       -0.96366
O          9.52413        5.41270       -0.02434
C         10.41758        4.82277        0.94393
C          9.57607        4.16643        2.02402
C         10.42910        3.47093        3.09327
C          9.58605        2.82815        4.19728
C         10.51797        3.07240       -5.01541
C          9.67659        3.83734       -6.06745
C         10.47590        4.89490       -6.83202
S          9.38108        5.76551       -7.97949
O          8.96470        4.85326       -9.02252
O          8.43261        6.51350       -7.19491
O         10.42615        6.82819       -8.62210
H          0.24595        7.17905        1.90791
H          0.05836        6.20426        0.43800
H          0.36513        7.94675        0.31420
H          2.35118        5.88726        1.48030
H          2.65157        7.61684        1.34909
H          2.44269        7.44759       -1.16597
H          2.18462        5.71159       -1.01731
H          4.45925        5.48696        0.07947
H          4.70990        7.22040       -0.11633
H          4.47690        6.94075       -2.63073
H          4.28957        5.20400       -2.39903
H          6.57187        5.14598       -1.27970
H          6.76873        6.86663       -1.63841
H          6.54279        6.40731       -4.10239
H          6.35880        4.66837       -3.76008
H          8.47668        3.44774       -3.35596
H          8.49747        4.30579       -1.78903
H         13.15205        3.82425       -4.60909
H         13.92639        5.28862       -2.96048
H          9.36405        6.83621       -1.45737
H         10.86571        6.95213       -0.48454
H         11.06471        5.61357        1.36616
H         11.07422        4.07791        0.45258
H          8.89610        3.43722        1.55387
H          8.93896        4.93528        2.48936
H         11.12311        4.20219        3.54011
H         11.06095        2.70235        2.61689
H          8.96573        3.57562        4.71247
H         10.22226        2.34762        4.95175
H          8.91225        2.05952        3.79175
H          9.88925        2.28811       -4.57032
H         11.35469        2.55611       -5.50920
H          8.82132        4.32363       -5.57861
H          9.27678        3.09771       -6.77478
H         11.28766        4.46262       -7.43370
H         10.88314        5.67875       -6.17720
H         10.52880        6.59937       -9.56676
