74

C          1.77434        0.46576        2.12529
C          0.40939        0.49755        1.49096
C         -0.18320       -0.66543        0.97451
C         -1.44376       -0.63196        0.38088
C         -2.14884        0.57425        0.28270
C         -1.57461        1.73699        0.80478
C         -0.31396        1.69517        1.39946
C         -3.47852        0.57120       -0.45120
N         -4.13431        1.87882       -0.52304
C         -4.12813        2.79809       -1.57700
N         -4.85773        3.84465       -1.28437
N         -5.32447        3.60154       -0.01368
C         -4.89394        2.42172        0.46972
N         -5.17064        1.86569        1.65351
C         -6.04863        2.48689        2.65798
C         -6.35537        1.48136        3.76794
C         -7.26001        2.09574        4.83997
S         -7.57451        0.82800        6.10281
C         -8.37236        1.81261        7.38262
S         -8.59585        3.44889        7.27853
N         -8.77740        1.02900        8.42805
C         -8.41165       -0.36379        8.53682
C         -9.39248       -1.35028        8.37977
C         -9.04457       -2.69409        8.51782
C         -7.72598       -3.05367        8.81394
C         -6.75285       -2.06456        8.98094
C         -7.09276       -0.71749        8.84931
C         -9.61892        1.54776        9.48320
C         -9.12012        1.60709       10.78680
C         -9.94993        2.04499       11.82123
C        -11.26926        2.41755       11.55328
C        -11.76181        2.35073       10.24592
C        -10.94026        1.91392        9.20721
C         -3.33653        2.64461       -2.83379
C         -1.83797        2.69401       -2.56163
C         -1.03987        1.55986       -2.74924
C          0.31984        1.58879       -2.43237
C          0.89364        2.75939       -1.93350
C          0.10779        3.90364       -1.76538
C         -1.25281        3.87125       -2.07307
H          2.29930       -0.47220        1.90750
H          1.70235        0.56067        3.21937
H          2.39748        1.29844        1.77083
H          0.35614       -1.61272        1.02834
H         -1.86912       -1.55145       -0.02832
H         -2.07992        2.69947        0.71642
H          0.12348        2.61911        1.78191
H         -4.19535       -0.12796        0.01033
H         -3.34752        0.22882       -1.48634
H         -5.90904        4.29055        0.44698
H         -4.55011        1.12516        1.97162
H         -6.98200        2.79101        2.15718
H         -5.57161        3.39038        3.07592
H         -5.41059        1.14919        4.23034
H         -6.83155        0.59264        3.32421
H         -8.21912        2.42932        4.41787
H         -6.79787        2.96271        5.33380
H        -10.41841       -1.05763        8.15548
H         -9.80714       -3.46389        8.39578
H         -7.45959       -4.10516        8.92504
H         -5.72723       -2.34037        9.22839
H         -6.34653        0.06509        8.98911
H         -8.08970        1.31300       10.98711
H         -9.56229        2.09526       12.83911
H        -11.91505        2.75779       12.36319
H        -12.79255        2.63669       10.03411
H        -11.31260        1.86249        8.18418
H         -3.65159        3.46177       -3.49722
H         -3.60292        1.70206       -3.33609
H         -1.48160        0.64322       -3.14702
H          0.92922        0.69659       -2.57737
H          1.95541        2.78511       -1.68727
H          0.55785        4.82556       -1.39570
H         -1.86267        4.76704       -1.93684
