96

C          0.63109       -0.08416       -0.27174
C          2.16090       -0.05791       -0.24736
C          2.73327        1.20408        0.40540
C          4.26383        1.24388        0.43264
C          4.83305        2.50847        1.08228
C          6.36364        2.55222        1.10832
C          6.92850        3.81922        1.75695
C          8.45877        3.86768        1.78437
C          9.01933        5.13590        2.43443
C         10.54938        5.18579        2.46287
C         11.11096        6.45314        3.11349
C         12.64125        6.49857        3.13970
C         13.20755        7.76407        3.78918
C         14.73821        7.80526        3.81405
C         15.30214        9.07178        4.46335
C         16.83260        9.11457        4.50299
C         17.37896       10.39339        5.14352
C         18.90778       10.44582        5.21481
C         19.42668       11.75298        5.82588
C         20.95582       11.80947        5.90081
C         21.55008       13.08566        6.51622
C         21.20428       13.33221        8.01437
C         22.41818       13.14375        8.93679
C         22.10288       13.36793       10.41344
O         21.00428       12.54947       10.77808
C         20.67282       12.64184       12.17302
C         19.56616       11.64277       12.45346
O         19.98492       10.29651       12.26442
C         20.58411       14.75502        8.06400
C         20.52721       15.17731        6.65107
N         21.04800       14.32873        5.83174
C         21.17995       14.54799        4.36956
C         22.16505       15.67020        4.01745
C         23.61145       15.40358        4.43361
H          0.24933       -0.99855       -0.74662
H          0.22772        0.77436       -0.82928
H          0.21663       -0.03971        0.74657
H          2.54821       -0.13970       -1.27708
H          2.53752       -0.94548        0.28865
H          2.34749        1.28623        1.43708
H          2.35462        2.09306       -0.12961
H          4.64867        1.15970       -0.59908
H          4.64229        0.35613        0.96948
H          4.44910        2.59209        2.11436
H          4.45282        3.39588        0.54611
H          6.74836        2.46835        0.07656
H          6.74500        1.66615        1.64583
H          6.54347        3.90258        2.78865
H          6.54596        4.70491        1.21958
H          8.84489        3.78573        0.75299
H          8.84245        2.98255        2.32173
H          8.63297        5.21769        3.46574
H          8.63559        6.02102        1.89701
H         10.93590        5.10443        1.43162
H         10.93307        4.30049        2.99989
H         10.72582        6.53494        4.14523
H         10.72847        7.33928        2.57684
H         13.02563        6.41589        2.10781
H         13.02281        5.61217        3.67627
H         12.82430        7.84727        4.82149
H         12.82728        8.65137        3.25287
H         15.12244        7.72182        2.78227
H         15.11834        6.91903        4.35161
H         14.91035        9.15877        5.49207
H         14.92679        9.95727        3.92053
H         17.22926        9.02093        3.47697
H         17.20952        8.23703        5.05628
H         16.96502       10.49516        6.16207
H         17.01060       11.26736        4.57731
H         19.32928       10.32379        4.20195
H         19.28061        9.59168        5.80523
H         18.99027       11.87420        6.83166
H         19.04585       12.59702        5.22393
H         21.38602       11.64636        4.89939
H         21.33595       10.97698        6.51539
H         22.64177       13.08293        6.35673
H         20.43515       12.61252        8.32100
H         23.22964       13.83218        8.64670
H         22.80450       12.12087        8.80591
H         21.86498       14.43450       10.61164
H         22.99419       13.12415       11.02141
H         20.33819       13.66837       12.41813
H         21.56362       12.40412       12.78258
H         18.68626       11.88227       11.82610
H         19.26091       11.73097       13.50563
H         20.31581       10.22148       11.35525
H         21.19588       15.48263        8.62913
H         19.58630       14.79691        8.52868
H         20.11608       16.12009        6.28009
H         20.17685       14.77130        3.98120
H         21.50338       13.59426        3.93605
H         21.80531       16.61865        4.44777
H         22.10335       15.79424        2.92582
H         23.72333       15.32468        5.52492
H         24.26040       16.22405        4.10364
H         23.99485       14.47734        3.98244
