85

C          0.98070       -1.81507        1.56441
C          2.49934       -1.63691        1.49807
C          2.98978       -0.33033        2.13204
C          4.51051       -0.15616        2.07680
C          5.01042        1.14350        2.71584
C          6.53326        1.30040        2.66285
C          7.04809        2.58880        3.31270
C          8.57248        2.72865        3.25421
C          9.10548        3.99473        3.93299
C         10.63083        4.11875        3.86047
C         11.18555        5.33814        4.60610
C         12.71091        5.44885        4.50681
C         13.28304        6.60449        5.33410
C         14.82554        6.68858        5.19026
C         15.40976        7.79487        5.98099
N         15.76167        8.99826        5.45811
N         16.19122        9.77700        6.41123
N         16.12119        9.08365        7.56018
N         15.62498        7.82437        7.31194
C         15.46837        6.80869        8.38024
C         16.28706        5.53176        8.13320
C         17.76567        5.74386        7.78261
C         18.60489        6.42851        8.86783
C         20.08461        6.55903        8.48987
C         20.92819        7.24376        9.56981
C         22.41116        7.36496        9.20403
C         23.25653        8.02946       10.29537
C         24.74135        8.14587        9.93622
C         25.58887        8.79995       11.03322
C         27.07022        8.91610       10.66560
C         16.45817        9.56221        8.77029
C         16.76971       10.06215        9.82463
H          0.66475       -2.76077        1.10299
H          0.45948       -1.00009        1.04001
H          0.62339       -1.81762        2.60509
H          2.82972       -1.67493        0.44607
H          2.99209       -2.48802        1.99835
H          2.65473       -0.28785        3.18372
H          2.50442        0.52414        1.62775
H          4.84402       -0.19617        1.02473
H          4.99265       -1.01490        2.57688
H          4.67514        1.18598        3.76726
H          4.53590        2.00490        2.21362
H          6.86670        1.26474        1.61069
H          7.00494        0.43223        3.15644
H          6.71794        2.62353        4.36601
H          6.58093        3.46028        2.82139
H          8.89956        2.71437        2.19970
H          9.03654        1.84380        3.72470
H          8.78768        4.00202        4.99060
H          8.64244        4.88432        3.47176
H         10.94455        4.16251        2.80311
H         11.09009        3.20378        4.27425
H         10.88887        5.28052        5.66814
H         10.72371        6.25833        4.20941
H         13.00422        5.57555        3.45113
H         13.17059        4.50225        4.84079
H         13.01167        6.47060        6.39452
H         12.84263        7.56157        5.01413
H         15.09400        6.88331        4.14296
H         15.28491        5.73255        5.47697
H         14.39345        6.59449        8.45270
H         15.77441        7.31229        9.30601
H         15.79532        4.92284        7.36167
H         16.19672        4.95371        9.06668
H         17.85427        6.30296        6.83374
H         18.19437        4.75297        7.56803
H         18.51409        5.85862        9.80877
H         18.21220        7.43625        9.09035
H         20.17266        7.12085        7.54319
H         20.49536        5.55590        8.28428
H         20.83096        6.68415       10.51654
H         20.51887        8.25068        9.77015
H         22.51118        7.93522        8.26385
H         22.81525        6.35994        8.99133
H         23.15245        7.45780       11.23442
H         22.85327        9.03551       10.50861
H         24.84758        8.72290        9.00057
H         25.14328        7.14099        9.71676
H         25.48432        8.21960       11.96564
H         25.18404        9.80210       11.25511
H         27.51278        7.92730       10.47368
H         27.64916        9.38659       11.47181
H         27.21129        9.52202        9.75829
H         17.05088       10.50015       10.76322
