83

C          0.61834       -0.00641        0.19574
C          2.14395       -0.08666        0.09582
C          2.72918        0.80885       -1.00222
C          4.25562        0.73255       -1.11202
C          4.83875        1.62711       -2.21109
C          6.36507        1.54857       -2.32369
C          6.94726        2.45162       -3.41642
C          8.47390        2.37584       -3.52888
C          9.05378        3.29802       -4.60686
C         10.58061        3.22612       -4.72388
C         11.15276        4.19324       -5.76610
C         12.67963        4.13338       -5.89809
C         13.22748        5.17027       -6.88731
C         14.76573        5.20212       -7.02627
C         15.32769        3.96772       -7.72883
N         14.95232        4.00145       -9.20245
C         15.43525        5.25141       -9.91732
C         14.91848        6.50706       -9.21200
C         15.29479        6.49603       -7.70442
C         16.80636        6.73690       -7.44691
C         17.17447        6.68487       -5.99131
C         18.08005        5.85589       -5.46457
C         15.36675        7.75392      -10.00057
C         14.81837        9.06082       -9.41376
C         15.15998       10.27021      -10.28845
S         14.58101       11.75623       -9.42123
C         15.11450       13.05288      -10.49515
S         15.81754       12.83500      -11.96330
N         14.84518       14.30948       -9.93931
C         14.43676       14.61298       -8.63324
C         14.28140       15.96871       -8.60231
N         14.56566       16.52899       -9.84258
C         14.89997       15.53300      -10.61649
H          0.23085       -0.65905        0.99012
H          0.13935       -0.31104       -0.74684
H          0.28563        1.01876        0.41728
H          2.44680       -1.13134       -0.08919
H          2.59217        0.18897        1.06553
H          2.42803        1.85524       -0.81669
H          2.27888        0.53499       -1.97292
H          4.55575       -0.31421       -1.29624
H          4.70523        1.00751       -0.14151
H          4.54072        2.67404       -2.02477
H          4.38690        1.35439       -3.18118
H          6.66327        0.50289       -2.51660
H          6.81659        1.81550       -1.35195
H          6.64835        3.49674       -3.22172
H          6.49581        2.18613       -4.38866
H          8.77379        1.33374       -3.73750
H          8.92433        2.62932       -2.55315
H          8.75536        4.33917       -4.39189
H          8.60048        3.05061       -5.58299
H         10.88121        2.19317       -4.97329
H         11.03308        3.44352       -3.74075
H         10.85551        5.22368       -5.50488
H         10.69169        3.98777       -6.74880
H         12.97269        3.11065       -6.19621
H         13.14297        4.30281       -4.91136
H         12.90531        6.17299       -6.56320
H         12.72790        5.02948       -7.86650
H         15.18989        5.16863       -6.00960
H         14.92807        3.02992       -7.32246
H         16.42395        3.92853       -7.68852
H         13.92475        3.96115       -9.26895
H         15.31245        3.16415       -9.67674
H         15.07758        5.18572      -10.95363
H         16.53262        5.19554       -9.92605
H         13.81480        6.48284       -9.27174
H         14.75106        7.32809       -7.23029
H         17.06643        7.73150       -7.84387
H         17.43767        6.02140       -7.99983
H         16.65624        7.39599       -5.33776
H         18.63493        5.14449       -6.08196
H         18.32129        5.87244       -4.40206
H         15.01807        7.65114      -11.04165
H         16.46684        7.80061      -10.05300
H         15.22623        9.22168       -8.40335
H         13.72448        8.98303       -9.29881
H         14.67327       10.22278      -11.27242
H         16.24232       10.36956      -10.45475
H         14.33548       13.85361       -7.86776
H         13.98780       16.58582       -7.75866
H         15.18177       15.57750      -11.66311
