58

C          0.84238        0.01019        0.08980
C          2.36990        0.00887       -0.00740
C          2.90145       -0.83089       -1.17427
C          4.42850       -0.83312       -1.28719
C          4.95899       -1.66888       -2.45671
C          6.48626       -1.65854       -2.56302
C          7.03996       -2.48170       -3.73076
C          8.56944       -2.45500       -3.79700
C          9.16969       -3.23940       -4.96802
C         10.70125       -3.18901       -4.97067
C         11.34907       -3.89857       -6.16815
C         12.86079       -3.85372       -6.06420
O         13.44335       -4.44211       -7.26478
C         14.81814       -4.55156       -7.19271
N         15.23669       -5.30742       -8.43584
C         16.74283       -5.44269       -8.54741
C         17.12573       -6.04209       -9.89563
C         16.40760       -7.37547      -10.16800
C         14.90099       -7.19119      -10.00414
C         14.49543       -6.64487       -8.63681
I         14.85631       -7.96496       -6.95611
I         13.77973       -8.97982      -10.47886
H          0.49146        0.61445        0.93760
H          0.45034       -1.00922        0.22397
H          0.38491        0.42085       -0.82279
H          2.79980       -0.36881        0.93607
H          2.73482        1.04507       -0.11029
H          2.46674       -0.45682       -2.11834
H          2.54099       -1.86963       -1.06880
H          4.86407       -1.20940       -0.34443
H          4.78861        0.20596       -1.39012
H          4.52355       -1.29459       -3.40009
H          4.60517       -2.70987       -2.35348
H          6.91840       -2.03429       -1.61855
H          6.83666       -0.61548       -2.65838
H          6.62289       -2.10033       -4.67945
H          6.69181       -3.52595       -3.64466
H          8.97837       -2.84950       -2.85000
H          8.90969       -1.40604       -3.85608
H          8.78485       -2.83450       -5.92008
H          8.83447       -4.29009       -4.92485
H         11.07627       -3.63301       -4.03220
H         11.02576       -2.13408       -4.95806
H         11.03603       -3.41583       -7.10762
H         11.01788       -4.94827       -6.21683
H         13.21789       -4.42544       -5.18893
H         13.22403       -2.81456       -5.97412
H         15.17196       -5.13369       -6.32232
H         15.34351       -3.57770       -7.23663
H         14.91489       -4.72259       -9.22502
H         17.05263       -6.07924       -7.70742
H         17.16129       -4.43792       -8.40525
H         18.21494       -6.18764       -9.90294
H         16.90725       -5.31959      -10.69996
H         16.76525       -8.15518       -9.47848
H         16.63047       -7.71993      -11.18537
H         14.52139       -6.47921      -10.75723
H         13.43104       -6.40377       -8.57100
