72

C          1.03104       -0.10623        1.02947
C          2.38829       -0.67957        0.61513
C          3.32167       -0.92392        1.80824
C          4.65844       -1.53414        1.38214
N          5.52154       -1.83243        2.53132
C          6.78635       -1.38247        2.65423
O          7.40184       -0.72326        1.81992
C          7.47791       -1.72154        4.00591
N          8.90282       -1.92215        3.76748
C          9.74881       -0.96369        3.33128
N         10.89620       -1.56437        3.04239
N         10.81984       -2.90888        3.25851
C          9.59442       -3.12666        3.69040
C          9.02458       -4.45750        4.04267
C         10.00490       -5.61794        3.83450
C          9.38578       -6.95972        4.23164
N         10.29971       -8.04759        3.92455
C          9.75558       -9.37323        4.26674
C         10.74323      -10.47700        3.98120
C         10.54901      -11.37850        2.92913
C         11.45261      -12.41159        2.66981
C         12.58457      -12.55167        3.47485
C         12.80707      -11.66337        4.52846
C         11.89287      -10.63596        4.77731
O         12.07616       -9.73137        5.80433
C         12.14817       -0.96773        2.55111
C         13.29100       -1.10289        3.55924
C         14.59906       -0.50662        3.00307
C         15.76176       -0.71044        3.94930
C         16.52023       -1.88942        3.89950
C         17.57740       -2.09511        4.78835
C         17.89097       -1.12236        5.74183
C         17.14316        0.05669        5.79996
C         16.08592        0.25903        4.90918
H          0.39090        0.06493        0.15415
H          1.14357        0.85525        1.55163
H          0.49542       -0.79108        1.70352
H          2.88006        0.00516       -0.09556
H          2.23861       -1.62733        0.07128
H          2.82194       -1.59645        2.52847
H          3.50911        0.02264        2.34150
H          5.22581       -0.85148        0.73610
H          4.49416       -2.46533        0.81552
H          5.12160       -2.37922        3.28850
H          7.07872       -2.61687        4.49508
H          7.34386       -0.87135        4.68884
H          9.52133        0.09036        3.22717
H          8.11750       -4.62094        3.43385
H          8.68529       -4.42797        5.09370
H         10.91650       -5.43705        4.42519
H         10.31742       -5.66458        2.78178
H          8.45865       -7.12546        3.65349
H          9.07832       -6.92598        5.30400
H         11.17329       -7.92046        4.44108
H          8.85341       -9.53511        3.65634
H          9.43975       -9.42663        5.33106
H          9.66110      -11.26494        2.30382
H         11.27304      -13.10260        1.84667
H         13.30001      -13.35290        3.28734
H         13.69247      -11.76704        5.16157
H         12.86988       -9.98554        6.30211
H         11.92392        0.08303        2.32077
H         12.38761       -1.48028        1.60853
H         13.44030       -2.16702        3.79338
H         13.02034       -0.59897        4.50054
H         14.46200        0.56898        2.80790
H         14.82778       -0.97733        2.03321
H         16.28981       -2.64912        3.14851
H         18.16449       -3.01250        4.72965
H         18.72175       -1.28026        6.43018
H         17.39027        0.82519        6.53335
H         15.51395        1.18927        4.95080
