102

C          5.30981       -0.28142        0.48643
C          6.35151       -0.42726       -0.62583
C          6.58476       -1.87963       -1.05639
C          7.64075       -2.03134       -2.15555
C          7.90121       -3.48376       -2.56864
C          8.98000       -3.62479       -3.64681
C          9.31451       -5.07616       -4.00774
C         10.42212       -5.19081       -5.05938
C         10.86382       -6.62812       -5.35435
C         12.00282       -6.69289       -6.37635
C         12.55228       -8.10493       -6.60776
C         13.68656       -8.16237       -7.62187
O         14.79902       -7.26839       -7.28231
C         15.55286       -7.64600       -6.20695
N         16.59067       -8.69672       -6.59022
C         16.83344       -9.94189       -6.12932
N         17.89117      -10.45339       -6.78938
N         18.30190       -9.55072       -7.65671
N         17.54060       -8.48549       -7.53350
C         17.60380       -7.36749       -8.46312
C         16.70085       -7.64396       -9.69028
O         16.09236       -8.67768       -9.84976
O         16.75921       -6.58763      -10.49109
C         16.04259       -6.68713      -11.78074
C         16.21650       -5.36672      -12.50187
C         15.64051       -5.41323      -13.92416
C         15.75827       -4.06886      -14.65228
C         15.32516       -4.12987      -16.12058
C         15.37299       -2.76978      -16.82469
C         15.05291       -2.84057      -18.32198
C         15.06148       -1.47271      -19.00914
C         16.13011      -10.63341       -5.02401
C         16.47405       -9.97987       -3.66618
O         16.49499       -8.77203       -3.51640
O         16.71503      -10.91144       -2.75363
C         17.00727      -10.45185       -1.38000
C         15.73902      -10.40280       -0.54567
C         16.04096      -10.02891        0.91224
C         14.78622      -10.00718        1.79176
C         15.07244       -9.64485        3.25283
C         13.81502       -9.62330        4.12493
H          5.16688        0.77065        0.76816
H          5.61275       -0.82911        1.39142
H          4.33210       -0.67744        0.17372
H          7.30888        0.00946       -0.29370
H          6.03987        0.16498       -1.50304
H          5.63046       -2.31614       -1.40081
H          6.88693       -2.47501       -0.17629
H          8.58816       -1.57832       -1.81230
H          7.33317       -1.44830       -3.04171
H          6.96136       -3.94001       -2.92583
H          8.19905       -4.06581       -1.67839
H          9.90084       -3.11993       -3.30344
H          8.66303       -3.08431       -4.55612
H          8.40608       -5.58884       -4.36924
H          9.62228       -5.61492       -3.09380
H         11.29968       -4.61156       -4.72057
H         10.08997       -4.71024       -5.99605
H         10.00443       -7.21891       -5.71526
H         11.18780       -7.10850       -4.41361
H         12.82070       -6.03347       -6.04206
H         11.66004       -6.27734       -7.33968
H         11.75889       -8.77139       -6.98593
H         12.86365       -8.55109       -5.64542
H         13.36410       -7.79435       -8.60356
H         14.07791       -9.18301       -7.76434
H         15.01012       -8.10324       -5.36881
H         16.12203       -6.78565       -5.83079
H         18.65224       -7.29403       -8.77753
H         17.31396       -6.43741       -7.96191
H         14.99059       -6.91904      -11.56314
H         16.47872       -7.53195      -12.33313
H         17.28934       -5.12065      -12.54630
H         15.72891       -4.56701      -11.92140
H         14.58028       -5.71833      -13.89050
H         16.16458       -6.19231      -14.50418
H         16.80314       -3.71619      -14.59792
H         15.15509       -3.31326      -14.11950
H         14.30179       -4.53910      -16.18763
H         15.97229       -4.84449      -16.65894
H         16.37358       -2.32137      -16.68900
H         14.66551       -2.07969      -16.33153
H         14.06709       -3.31615      -18.46091
H         15.78072       -3.50700      -18.81521
H         14.30334       -0.80339      -18.57559
H         14.84964       -1.56093      -20.08329
H         16.03826       -0.97718      -18.90322
H         16.42240      -11.68886       -5.03871
H         15.03738      -10.57454       -5.15027
H         17.50138       -9.47411       -1.44537
H         17.71549      -11.20259       -1.00833
H         15.24266      -11.38526       -0.58639
H         15.04285       -9.66737       -0.98134
H         16.53173       -9.04118        0.94607
H         16.76769      -10.74566        1.33211
H         14.29581      -10.99524        1.75002
H         14.05863       -9.28964        1.37301
H         15.56760       -8.66000        3.29325
H         15.79748      -10.36473        3.66851
H         13.09152       -8.87648        3.76573
H         14.05701       -9.37538        5.16721
H         13.30929      -10.60031        4.12549
