55

C          0.50993       -0.00229       -0.03581
C          2.01725       -0.19645        0.14579
C          2.68083        0.93179        0.94281
C          4.19260        0.75576        1.11653
C          4.85526        1.91381        1.86851
C          6.37545        1.77545        1.99535
C          7.02571        2.97001        2.70132
C          8.55592        2.89287        2.72342
C          9.22797        4.01565        3.53713
C          8.90158        5.44133        3.07858
C          9.51783        5.73169        1.71398
C          9.38479        7.19905        1.28308
C         10.06648        7.52320       -0.05421
C          9.69107        8.89870       -0.60482
O         10.17240        9.11402       -1.91709
O         11.51846        7.41310        0.05472
N         10.93784        5.34839        1.76564
C         11.46460        4.49322        2.64920
N         12.81057        4.31713        2.64931
N         10.70453        3.84440        3.54445
C         11.29650        2.87502        4.46677
H          0.06609       -0.82334       -0.61494
H          0.28901        0.93551       -0.56714
H         -0.00848        0.03785        0.93370
H          2.50113       -0.27260       -0.84291
H          2.20842       -1.15885        0.64981
H          2.20374        1.00803        1.93581
H          2.48334        1.89524        0.43980
H          4.66300        0.65281        0.12263
H          4.39551       -0.19138        1.64604
H          4.40939        2.00336        2.87442
H          4.62225        2.86093        1.35011
H          6.81542        1.66523        0.98860
H          6.62271        0.84666        2.53747
H          6.64223        3.04317        3.73399
H          6.70315        3.89317        2.19111
H          8.94780        2.90105        1.69234
H          8.86482        1.92541        3.15188
H          8.91937        3.92427        4.59016
H          9.29281        6.15795        3.81741
H          7.81442        5.57643        3.03709
H          9.02447        5.10817        0.94676
H          9.77934        7.85995        2.07403
H          8.30939        7.41816        1.19448
H          9.80222        6.76789       -0.81199
H         10.04462        9.68363        0.09889
H          8.59603        8.98660       -0.66192
H         11.13661        8.99744       -1.92136
H         11.83596        8.19370        0.54362
H         11.55210        5.89725        1.14893
H         13.35551        4.69686        1.88531
H         13.22091        3.53634        3.14387
H         12.08581        3.33708        5.07750
H         11.69723        1.99453        3.94070
H         10.51227        2.52757        5.14595
