73

C          3.28283       -2.44560       -1.11579
C          4.27364       -1.95855       -2.17553
C          4.60836       -0.46340       -2.03124
C          5.59910       -0.03804       -3.09704
O          5.88527        1.42528       -3.03744
C          6.85809        1.78929       -2.23110
O          7.55624        1.14203       -1.50172
N          7.08138        3.29204       -2.30429
C          6.10529        4.11942       -3.11464
C          5.06369        4.79418       -2.22754
O          5.61248        5.96253       -1.54807
C          6.36360        5.77517       -0.44981
O          6.75228        4.66921       -0.06737
C          6.73368        7.07118        0.20907
S          8.20872        7.74514       -0.65570
C          3.90876        5.32167       -3.08938
O          3.06781        6.22917       -2.36952
C          2.29532        5.68029       -1.38093
O          2.23213        4.48771       -1.16505
C          1.60702        6.76291       -0.58838
S          2.71223        7.32371        0.76590
C          8.54169        3.56977       -2.65918
C          8.90043        3.15353       -4.07664
C         10.35412        3.51250       -4.41378
C         10.69970        3.22847       -5.87911
C         12.14111        3.59092       -6.24708
C         12.45577        3.37068       -7.72983
C         13.89900        3.71462       -8.10926
C         14.20014        3.51684       -9.59778
C         15.64802        3.83913       -9.98207
C         15.93631        3.64024      -11.47178
H          3.06351       -3.51283       -1.24814
H          2.33043       -1.89978       -1.17496
H          3.68409       -2.31205       -0.10104
H          3.86173       -2.14531       -3.18099
H          5.20328       -2.54725       -2.10987
H          5.03276       -0.27442       -1.03276
H          3.68992        0.13826       -2.12019
H          5.20072       -0.16109       -4.11115
H          6.56094       -0.55907       -3.00635
H          6.96628        3.64810       -1.29434
H          5.62250        3.46872       -3.84992
H          6.68430        4.88443       -3.64653
H          4.67354        4.10477       -1.46371
H          6.94912        6.91078        1.26977
H          5.93501        7.81142        0.09040
H          9.11226        6.95376       -0.02934
H          3.32672        4.46566       -3.46151
H          4.28897        5.91088       -3.93421
H          0.66473        6.38913       -0.17566
H          1.42342        7.65111       -1.20348
H          2.58339        6.20854        1.52388
H          9.13348        3.03075       -1.90925
H          8.67349        4.64924       -2.49619
H          8.23448        3.64804       -4.80281
H          8.74995        2.06779       -4.19822
H         11.03581        2.95375       -3.75127
H         10.52460        4.58192       -4.20050
H         10.00591        3.79171       -6.52794
H         10.52173        2.16137       -6.09829
H         12.83754        2.99757       -5.62968
H         12.32981        4.64726       -5.98693
H         11.76346        3.97626       -8.34113
H         12.24988        2.31867       -7.99474
H         14.59061        3.09649       -7.51032
H         14.11089        4.76160       -7.82926
H         13.51620        4.14586      -10.19499
H         13.97263        2.47375       -9.88087
H         16.32941        3.20838       -9.38635
H         15.87563        4.88043       -9.69727
H         15.75026        2.60068      -11.78006
H         16.98123        3.87614      -11.71475
H         15.29784        4.28717      -12.09190
