76

C         13.93600       -4.16825       15.24420
C         13.33564       -2.86435       14.71444
C         13.70134       -2.58131       13.25423
C         13.12105       -1.27052       12.71515
C         13.50175       -0.98967       11.25864
C         12.96029        0.33835       10.72002
C         13.38545        0.62134        9.27608
C         12.89629        1.96773        8.73319
C         13.38784        2.25472        7.31090
C         12.93188        3.60835        6.75754
C         13.50874        3.90344        5.36884
C         13.04794        5.21946        4.75607
O         13.36347        6.39221        5.56571
C         14.70875        6.75795        5.55143
N         14.95912        7.53683        6.80186
N         15.72909        6.87004        7.66630
C         15.98790        7.43135        8.84212
C         16.88538        6.63524        9.75416
O         16.71792        7.12208       11.07420
C         17.46965        6.41546       12.03473
O         18.83738        6.67650       11.82452
C         19.68472        6.05170       12.80661
C         21.08694        6.59748       12.60417
O         21.16201        7.99633       12.84955
C         15.45562        8.69021        9.19604
C         14.67217        9.35024        8.27257
C         14.40339        8.75520        7.02233
C         13.52596        9.42166        5.99014
C         12.04073        9.35655        6.42234
O         11.89089       10.07513        7.64438
C         13.98211       10.86768        5.71489
H         13.65596       -4.34561       16.29155
H         15.03486       -4.15046       15.19152
H         13.59174       -5.03229       14.65669
H         13.67215       -2.02132       15.34165
H         12.23753       -2.89562       14.81343
H         13.35692       -3.42012       12.62406
H         14.80113       -2.56069       13.15342
H         13.46394       -0.43350       13.34917
H         12.02121       -1.29052       12.80949
H         13.14139       -1.81568       10.62111
H         14.60227       -0.99504       11.16498
H         13.30606        1.16209       11.36996
H         11.85845        0.34166       10.78754
H         13.02013       -0.18903        8.62191
H         14.48759        0.58595        9.21176
H         13.23492        2.77665        9.40557
H         11.79317        1.99686        8.75626
H         13.04600        1.45123        6.63617
H         14.49144        2.21050        7.29605
H         13.22709        4.40789        7.45756
H         11.82957        3.63787        6.70940
H         13.20885        3.11194        4.66131
H         14.61106        3.85547        5.40136
H         11.95246        5.25328        4.68398
H         13.46007        5.35899        3.74206
H         14.97150        7.40162        4.69085
H         15.40230        5.90832        5.60677
H         17.93242        6.74693        9.41500
H         16.62456        5.56349        9.67632
H         17.26710        5.32447       11.95950
H         17.13242        6.79344       13.01557
H         19.67149        4.95260       12.68278
H         19.32551        6.30359       13.82087
H         21.43654        6.34739       11.58508
H         21.76604        6.11575       13.32166
H         20.52795        8.42657       12.25348
H         15.66978        9.10508       10.18031
H         14.23084       10.32041        8.48813
H         13.57356        8.85065        5.05473
H         11.73655        8.30288        6.53070
H         11.44773        9.81318        5.61071
H         10.94986       10.11341        7.87413
H         13.84014       11.51603        6.58734
H         13.37973       11.28077        4.89539
H         15.03654       10.90710        5.41236
