76

C          7.49811        0.09751       -5.04548
C          7.18328        0.07419       -3.54794
C          7.96038       -1.00107       -2.77871
C          7.63877       -1.02591       -1.28140
C          8.42295       -2.07916       -0.49006
C          8.07481       -2.07831        1.00205
C          8.86213       -3.09777        1.83418
C          8.48513       -3.04143        3.31965
C          9.18466       -4.07488        4.22365
P         11.00105       -3.97464        4.27107
C         11.57374       -2.26655        4.43112
C         13.09530       -2.07088        4.39333
C         13.41202       -0.66741        4.96697
O         12.65701       -0.15372        5.78825
N         14.57287       -0.12450        4.50332
C         15.20359        1.09773        4.85719
C         14.64822        2.02092        5.75617
C         15.34869        3.19660        6.03469
C         16.58155        3.46447        5.43661
C         17.12702        2.53982        4.54140
C         16.44246        1.36247        4.25136
C         11.66835       -5.00674        5.61757
C         11.13732       -6.44148        5.55539
O         11.27769       -6.87699        4.21528
C         10.89196       -8.24707        4.02458
C         11.19511       -8.63368        2.58362
O         10.77334       -9.97228        2.44334
C         11.10439      -10.54822        1.17961
C         10.62545      -11.99309        1.20207
O         10.98350      -12.57480       -0.03681
C         10.61455      -13.94538       -0.12015
H          6.92742        0.88040       -5.56310
H          7.25070       -0.86264       -5.52196
H          8.56576        0.29128       -5.22736
H          6.10185       -0.08625       -3.40070
H          7.40297        1.06218       -3.10884
H          9.04364       -0.83774       -2.91979
H          7.74496       -1.99118       -3.21770
H          6.55743       -1.20139       -1.14476
H          7.83777       -0.02878       -0.85051
H          9.50564       -1.90065       -0.61666
H          8.22842       -3.07979       -0.91377
H          6.99572       -2.27335        1.12502
H          8.24628       -1.06836        1.41414
H          9.94320       -2.90533        1.69834
H          8.68674       -4.11549        1.44483
H          7.40355       -3.21758        3.42569
H          8.65642       -2.02800        3.71619
H          8.95900       -5.10611        3.90850
H          8.85184       -3.97221        5.26902
H         11.51094       -4.48926        3.06152
H         11.19167       -1.85973        5.38376
H         11.08703       -1.69106        3.62925
H         13.49018       -2.19783        3.37463
H         13.61362       -2.80006        5.03674
H         15.08474       -0.67262        3.81742
H         13.69004        1.81672        6.22518
H         14.91490        3.91308        6.73301
H         17.11475        4.38709        5.66512
H         18.08874        2.73340        4.06579
H         16.87252        0.64043        3.55205
H         11.40737       -4.52142        6.56994
H         12.76345       -4.99350        5.51802
H         10.07961       -6.48574        5.88089
H         11.72029       -7.07582        6.24789
H          9.81497       -8.37640        4.23479
H         11.45797       -8.89790        4.71335
H         12.27964       -8.52807        2.38366
H         10.65706       -7.96241        1.88301
H         12.19702      -10.51511        1.01141
H         10.61406       -9.99566        0.35617
H          9.52891      -12.02571        1.35868
H         11.09997      -12.52867        2.04823
H         10.93570      -14.30299       -1.10525
H          9.52113      -14.07681       -0.02559
H         11.11231      -14.54545        0.66350
