47

C          0.54077        0.12101       -0.14587
C          2.03491        0.02709       -0.46218
C          2.54983       -1.41737       -0.49008
C          4.05097       -1.50867       -0.79740
C          4.52028       -2.95717       -0.87378
N          5.99021       -3.06938       -1.21879
C          6.91438       -2.77641       -0.06492
C          8.15701       -2.05990       -0.62956
O          7.63718       -1.07981       -1.53234
C          8.98869       -1.43786        0.48566
C          6.33946       -4.34666       -1.93998
C          6.02473       -4.20873       -3.43121
O          6.64070       -3.04538       -3.96919
C          7.94538       -3.25788       -4.53420
C          8.51610       -1.93295       -4.98834
O          8.99030       -1.18600       -3.86055
C          9.55393        0.08108       -4.23456
H          0.20257        1.16516       -0.14174
H          0.31139       -0.30573        0.84125
H         -0.06203       -0.41895       -0.89051
H          2.60903        0.60336        0.28217
H          2.23792        0.50131       -1.43672
H          1.98331       -1.99134       -1.24381
H          2.34265       -1.89923        0.48079
H          4.61576       -0.95590       -0.02982
H          4.26695       -1.01083       -1.75784
H          3.96799       -3.49111       -1.65919
H          4.36818       -3.50061        0.07008
H          6.24245       -2.27748       -1.87085
H          7.14645       -3.70810        0.46511
H          6.38187       -2.09960        0.61508
H          8.78048       -2.78283       -1.18800
H          8.14917       -1.09935       -2.38443
H          8.40750       -0.67146        1.01631
H          9.88362       -0.96121        0.06773
H          9.31572       -2.19785        1.20998
H          5.78633       -5.17385       -1.47471
H          7.41202       -4.52338       -1.78956
H          4.94317       -4.09350       -3.59907
H          6.34018       -5.12810       -3.95240
H          7.86278       -3.93066       -5.40589
H          8.63093       -3.72373       -3.80225
H          7.74553       -1.35808       -5.53309
H          9.35728       -2.12525       -5.67806
H          9.89873        0.56060       -3.31170
H          8.80018        0.72092       -4.72187
H         10.40883       -0.06184       -4.91441
