52

C          5.22288       -4.15247        7.12419
C          5.35352       -3.09221        6.02919
C          6.80683       -2.65094        5.81018
C          6.91450       -1.61619        4.68957
S          8.67648       -1.12375        4.53711
C          8.55683       -0.01585        3.22243
N          7.53513        0.37596        2.50881
N          8.03767        1.28714        1.57047
C          9.31361        1.37010        1.79801
O          9.75217        0.59273        2.81639
N         10.26759        2.13984        1.15525
C          9.99238        2.98573        0.11565
N          8.73504        3.07757       -0.29401
N         10.97669        3.69364       -0.50921
C         12.39219        3.98206       -0.00907
C         13.29020        4.42035       -1.19670
C         13.77171        3.37501       -2.22781
C         12.66919        2.79773       -3.12702
C         14.87182        4.01098       -3.09132
C         12.28274        5.14063        1.01998
O         11.67453        6.31048        0.47239
C         13.06465        2.78758        0.69524
N         10.42868        4.56589       -1.48280
H          4.17514       -4.44897        7.26331
H          5.59568       -3.77940        8.08900
H          5.79387       -5.05758        6.87206
H          4.74331       -2.21177        6.28778
H          4.94662       -3.48360        5.08271
H          7.42617       -3.52927        5.56603
H          7.20773       -2.23077        6.74722
H          6.33127       -0.71189        4.90651
H          6.59264       -2.02164        3.72170
H         11.23175        2.00545        1.44177
H          8.01534        2.49635        0.16832
H          8.56283        3.74312       -1.04490
H         14.18994        4.83444       -0.71219
H         12.83439        5.27251       -1.72296
H         14.23053        2.53492       -1.67980
H         12.22516        3.57873       -3.76649
H         11.86753        2.29892       -2.56333
H         13.09196        2.04856       -3.80978
H         14.47968        4.86505       -3.66452
H         15.27063        3.28475       -3.81196
H         15.71054        4.37217       -2.48025
H         13.28581        5.35582        1.42115
H         11.64996        4.81107        1.86131
H         12.34812        6.99158        0.32961
H         12.88773        1.83352        0.18221
H         12.79412        2.70936        1.76151
H         14.14995        2.94876        0.69238
H         10.88351        4.38152       -2.37855
H         10.61681        5.52878       -1.18311
