67

C          9.64343       -3.70030       -4.26159
C          9.19368       -2.54259       -3.36716
C          9.51491       -2.76562       -1.88522
C          9.06532       -1.61779       -0.97536
C          9.36656       -1.86744        0.50601
C          8.92381       -0.72633        1.42787
C          9.18488       -1.01876        2.91042
C          8.78173        0.13335        3.84044
C          8.90802       -0.19139        5.33229
N         10.30137       -0.50158        5.67402
C         10.96919       -0.20961        6.80265
N         10.33521       -0.05143        7.98909
C          9.27352       -0.99439        8.33644
C          9.82213       -2.44880        8.37118
O         10.98787       -2.63341        8.04159
C          8.91212       -3.54597        8.76450
C          7.57379       -3.32231        9.14357
C          6.75681       -4.39586        9.49303
C          7.26701       -5.69813        9.46797
C          8.59713       -5.92963        9.09629
C          9.41635       -4.86204        8.74615
C         11.04092        0.62157        9.10693
C         11.18661        2.14210        8.92186
C          9.80411        2.82239        8.92494
C          9.82339        4.30852        8.55923
C         12.13184        2.68229       10.00300
N         12.29825        0.00213        6.71188
H          9.39854       -3.51274       -5.31585
H          9.15564       -4.64278       -3.97105
H         10.73042       -3.85781       -4.19656
H          8.10760       -2.38700       -3.48284
H          9.67011       -1.60692       -3.70556
H         10.60230       -2.92059       -1.76805
H          9.03986       -3.70429       -1.54866
H          7.98125       -1.45280       -1.10344
H          9.55350       -0.68114       -1.29701
H         10.45021       -2.03965        0.63345
H          8.87351       -2.80321        0.82314
H          7.84715       -0.53179        1.28478
H          9.44150        0.20479        1.13934
H         10.26035       -1.25768        3.02286
H          8.64162       -1.93372        3.20433
H          7.72774        0.39492        3.65901
H          9.36861        1.03768        3.61039
H          8.25827       -1.05071        5.57432
H          8.59092        0.66391        5.94525
H         10.85102       -0.91585        4.92572
H          8.43238       -0.94225        7.63189
H          8.87214       -0.70300        9.31428
H          7.15853       -2.31387        9.17260
H          5.72185       -4.22068        9.78596
H          6.62548       -6.53709        9.73998
H          8.99026       -6.94638        9.08001
H         10.45393       -5.02002        8.45219
H         12.01652        0.14240        9.29373
H         10.44418        0.42230       10.00702
H         11.65677        2.32550        7.93976
H          9.34854        2.69201        9.92264
H          9.14744        2.28879        8.21715
H         10.39519        4.90521        9.28201
H          8.80504        4.71712        8.53644
H         10.26865        4.47168        7.56653
H         11.72150        2.52399       11.01188
H         12.30244        3.75858        9.88069
H         13.11419        2.19075        9.95968
H         12.73382        0.09330        5.80274
H         12.89837       -0.23923        7.49185
