87

C         20.70714       -0.89169        7.11265
C         19.55071       -0.78926        6.11595
C         19.88471        0.06906        4.89175
C         18.73982        0.17080        3.87987
C         19.07315        1.03945        2.66294
C         17.92970        1.13802        1.64884
C         18.25149        2.02923        0.44559
C         17.10751        2.12634       -0.56886
C         17.43053        3.03144       -1.76166
C         16.28279        3.15671       -2.76915
C         16.61711        4.08426       -3.94200
C         15.46822        4.23893       -4.94559
C         15.83109        5.18004       -6.10094
C         14.66807        5.33864       -7.08444
N         15.03604        6.22326       -8.22370
C         14.73083        7.53148       -8.21034
C         15.13448        8.36761       -9.26070
C         14.81324        9.83587       -9.26403
C         13.72343       10.22876      -10.29036
C         12.33156        9.67401       -9.97513
C         11.27465       10.14287      -10.97764
C         15.83308        7.74226      -10.29136
C         16.11146        6.36362      -10.22885
N         15.71638        5.61712       -9.18802
C         16.89172        5.66447      -11.31328
C         16.53938        4.19183      -11.50209
O         15.16299        4.11381      -11.82177
C         14.72019        2.76409      -12.02721
C         13.21775        2.75752      -12.25489
C         12.66729        1.34485      -12.47817
C         11.14714        1.31289      -12.66891
C         10.59999       -0.09983      -12.88038
H         20.43905       -1.51028        7.98022
H         20.99788        0.10065        7.48835
H         21.59597       -1.34116        6.64531
H         18.66344       -0.37072        6.62038
H         19.26037       -1.79961        5.78161
H         20.77834       -0.34442        4.39159
H         20.16792        1.08284        5.22618
H         17.84421        0.57702        4.38214
H         18.46265       -0.84263        3.54006
H         19.97133        0.63708        2.16229
H         19.34597        2.05361        3.00429
H         17.02691        1.52309        2.15484
H         17.66888        0.12553        1.29391
H         19.15621        1.64837       -0.05999
H         18.50777        3.04246        0.80201
H         16.20167        2.50170       -0.06132
H         16.85465        1.11547       -0.93341
H         18.32832        2.64859       -2.27768
H         17.69874        4.03662       -1.39177
H         15.38220        3.53113       -2.25211
H         16.02015        2.15648       -3.15478
H         17.50978        3.70299       -4.46697
H         16.89333        5.07874       -3.55089
H         14.57404        4.61976       -4.42319
H         15.19387        3.24989       -5.34941
H         16.70430        4.78926       -6.64620
H         16.11064        6.16982       -5.70359
H         13.78675        5.78239       -6.60269
H         14.38822        4.37727       -7.53186
H         14.16572        7.88800       -7.34999
H         15.73822       10.38548       -9.49714
H         14.49973       10.14760       -8.25643
H         14.03726        9.90911      -11.29818
H         13.68406       11.32849      -10.31838
H         12.04062        9.98807       -8.95824
H         12.35911        8.57066       -9.96361
H         11.19231       11.23926      -10.98266
H         10.28543        9.73608      -10.73147
H         11.52337        9.82231      -11.99946
H         16.17475        8.31716      -11.15443
H         17.96574        5.74743      -11.07410
H         16.73726        6.20942      -12.25571
H         16.76186        3.61549      -10.58412
H         17.16469        3.77839      -12.31580
H         14.98180        2.15300      -11.14073
H         15.25192        2.33070      -12.89621
H         12.98375        3.39463      -13.12286
H         12.72391        3.21674      -11.38238
H         12.93683        0.70339      -11.62086
H         13.15333        0.89390      -13.36024
H         10.87709        1.94778      -13.52913
H         10.66287        1.77005      -11.78945
H         11.03994       -0.56799      -13.77304
H          9.50976       -0.09218      -13.01243
H         10.82686       -0.74788      -12.02085
