48

C          0.95103       -0.65198       -1.19095
C          2.41425       -0.80020       -0.76621
C          3.32942       -1.10924       -1.96139
C          4.77646       -1.23705       -1.53339
O          5.61815       -1.70819       -2.67679
C          6.12625       -0.79004       -3.45079
O          6.04871        0.40503       -3.46657
N          6.99343       -1.48006       -4.47698
N          6.94686       -1.08585       -5.77741
N          8.00057       -1.52436       -6.41389
N          8.77327       -2.17128       -5.56373
C          8.17040       -2.16556       -4.35590
C          8.75945       -2.77719       -3.16794
C         10.15209       -2.67187       -3.00863
C         10.73293       -3.28264       -1.89620
N         10.03781       -3.97925       -0.98531
C          8.71426       -4.09357       -1.16308
C          8.02170       -3.51508       -2.22812
C          5.81238       -0.39356       -6.44954
C          4.46113       -0.98247       -6.12727
C          3.48869       -0.11407       -5.60944
C          2.19297       -0.56225       -5.35941
C          1.87207       -1.89726       -5.60775
C          2.83911       -2.76480       -6.12000
C          4.14267       -2.33357       -6.40290
C          5.13638       -3.30216       -6.99552
H          0.31056       -0.43630       -0.32649
H          0.57632       -1.57214       -1.66217
H          0.82477        0.16994       -1.91072
H          2.50357       -1.60226       -0.01551
H          2.75240        0.12470       -0.27136
H          3.23989       -0.31027       -2.71127
H          3.01143       -2.04419       -2.44906
H          4.93131       -2.02531       -0.78702
H          5.20603       -0.29253       -1.17584
H         10.75948       -2.12449       -3.72874
H         11.81092       -3.21253       -1.73223
H          8.17750       -4.68676       -0.41823
H          6.95061       -3.66829       -2.33829
H          6.08856       -0.47356       -7.51054
H          5.86339        0.66207       -6.15166
H          3.75178        0.92667       -5.41050
H          1.44149        0.12639       -4.97316
H          0.86277       -2.26369       -5.41703
H          2.57328       -3.80243       -6.32945
H          4.62542       -4.19803       -7.36599
H          5.87696       -3.64624       -6.25504
H          5.69500       -2.87102       -7.83878
