63

C          4.10258       -2.12252       -3.56973
C          3.99916       -1.54667       -2.15439
C          4.64502       -2.46156       -1.12966
O          4.49338       -1.86327        0.18351
C          5.00459       -2.65628        1.23053
C          6.49760       -2.50423        1.37699
N          7.38809       -3.51187        1.35476
N          8.59757       -2.99059        1.45097
N          8.47514       -1.68178        1.52834
N          7.16256       -1.33093        1.49311
C          6.64240        0.05584        1.61495
C          6.00773        0.32642        2.98486
C          5.52075        1.77850        3.08061
C          4.83147        2.06872        4.41944
C          4.33858        3.51392        4.54525
C          3.63404        3.79600        5.87625
C          3.14389        5.24107        6.01448
C          2.44345        5.51186        7.34738
C          9.62617       -0.77672        1.59917
C          9.90951       -0.30819        3.04071
O         10.93329        0.68846        3.02306
C         10.51426        1.95135        2.64831
O          9.36865        2.16169        2.29668
C         11.62914        2.95728        2.74986
C         12.89402        2.59124        1.94684
C         12.65195        2.48429        0.44057
H          3.62956       -1.44951       -4.29521
H          3.60002       -3.09718       -3.64540
H          5.14938       -2.25928       -3.87685
H          2.94494       -1.39636       -1.87827
H          4.48347       -0.55854       -2.11049
H          5.71790       -2.60941       -1.35772
H          4.16164       -3.45514       -1.12288
H          4.80849       -3.73353        1.09282
H          4.50921       -2.33719        2.16081
H          5.90530        0.15820        0.80713
H          7.48052        0.74146        1.43345
H          6.74123        0.12449        3.78167
H          5.16137       -0.35822        3.14692
H          4.81869        1.98418        2.25485
H          6.37631        2.46010        2.94364
H          5.52956        1.84814        5.24573
H          3.97835        1.37992        4.54678
H          3.64991        3.73872        3.71236
H          5.19306        4.20282        4.42923
H          4.32007        3.56354        6.70984
H          2.77691        3.10903        5.98845
H          2.45783        5.47166        5.18238
H          4.00052        5.92630        5.90074
H          1.56213        4.86606        7.47338
H          2.10429        6.55400        7.41765
H          3.11652        5.32322        8.19666
H          9.42859        0.08158        0.94643
H         10.46402       -1.35753        1.19638
H         10.30038       -1.13556        3.64474
H          8.99728        0.09718        3.50063
H         11.88784        3.04903        3.81703
H         11.21587        3.91913        2.41990
H         13.31352        1.65257        2.33589
H         13.64227        3.37126        2.14708
H         11.93983        1.68110        0.19502
H         13.58663        2.26261       -0.09007
H         12.24887        3.42111        0.03037
