69

C          5.19030       -3.38750       -3.48161
C          5.81089       -2.60118       -2.32080
C          6.06476       -3.50831       -1.12501
O          6.72078       -2.80290       -0.01831
C          5.90931       -2.19445        0.86926
O          4.69793       -2.13897        0.78770
C          6.69400       -1.60130        2.03494
C          7.08731       -2.68746        3.09280
O          6.06841       -3.70409        3.17703
C          4.83906       -3.28428        3.77508
C          5.06164       -2.79027        5.19477
N          6.02473       -1.63373        5.14930
C          7.30426       -2.04919        4.47833
C          6.28026       -0.99971        6.48115
C          5.66893        0.41614        6.40618
O          5.14358        0.72981        5.33306
C          5.72865        1.29912        7.57284
C          6.46879        0.96025        8.72418
C          6.50145        1.83074        9.80992
C          5.79027        3.03511        9.76093
C          5.05119        3.37817        8.62120
C          5.02239        2.51968        7.52885
C          8.38710       -3.40019        2.63889
C          9.09772       -4.39949        3.57404
O          9.57394       -3.78768        4.80842
C         10.73919       -3.08202        4.76056
O         11.37062       -2.86849        3.74888
C         11.12192       -2.60766        6.14812
S         10.23170       -1.08854        6.65515
C          8.21458       -5.59524        3.98791
O          8.71318       -6.26351        5.16818
C          8.15558       -5.86597        6.34133
O          7.30500       -4.99872        6.44349
C          8.72419       -6.64528        7.50459
S         10.12206       -5.75615        8.29114
H          5.01603       -2.73298       -4.34479
H          4.22256       -3.82580       -3.19832
H          5.84537       -4.20616       -3.81359
H          5.13979       -1.78355       -2.01924
H          6.76197       -2.14450       -2.63471
H          6.76932       -4.31241       -1.37540
H          5.12967       -3.94361       -0.74658
H          6.04938       -0.82554        2.46993
H          7.60607       -1.10798        1.67406
H          4.19762       -4.17419        3.79615
H          4.33544       -2.52488        3.15186
H          5.51773       -3.56572        5.82531
H          4.12544       -2.43005        5.64169
H          5.56114       -0.82943        4.63740
H          7.77124       -2.76420        5.16051
H          7.94617       -1.16165        4.40879
H          7.36523       -0.96584        6.66108
H          5.81922       -1.60223        7.27374
H          7.03325        0.02780        8.77517
H          7.08045        1.57371       10.69665
H          5.81264        3.71127       10.61635
H          4.49812        4.31724        8.59047
H          4.45454        2.76838        6.63232
H          9.12523       -2.63486        2.36239
H          8.14559       -3.92870        1.70466
H          9.99113       -4.75348        3.03882
H         12.20075       -2.42454        6.18114
H         10.83849       -3.35771        6.89980
H         10.78863       -0.25966        5.74025
H          8.23493       -6.34593        3.18859
H          7.18407       -5.28385        4.16793
H          9.04605       -7.64850        7.20678
H          7.95488       -6.71845        8.28164
H         11.06019       -6.13003        7.38901
