109

C          4.69459        2.43362       -3.09484
C          5.51759        2.46882       -1.80457
C          5.21429        1.30188       -0.85784
C          6.02619        1.33453        0.44107
C          5.72837        0.15884        1.37762
C          6.51935        0.20484        2.68939
C          6.22205       -0.98140        3.61283
C          6.98925       -0.88563        4.93863
N          6.71865       -2.00305        5.85927
C          5.75941       -1.96657        6.80286
S          5.50728       -3.21516        7.90580
S          4.77931       -0.46815        6.79263
C          3.66197       -0.75430        8.18764
C          2.49420       -1.70569        7.86974
C          2.07615       -2.47470        9.14632
C          1.09709       -3.55436        8.87946
N         -0.24194       -3.44278        9.00291
N         -0.78165       -4.59500        8.66684
N          0.18238       -5.41872        8.31730
N          1.38716       -4.80082        8.44378
C          2.68954       -5.40328        8.09254
C          3.42849       -6.04156        9.27107
C          4.72698       -6.68995        8.76796
C          5.69286       -7.06609        9.89526
C          6.99887       -7.67707        9.37591
C          8.00459       -8.00814       10.48293
C          9.28286       -8.67408        9.96232
C         10.31054       -8.96083       11.05891
C         -0.03728       -6.86150        8.11573
C          0.01908       -7.53005        9.51916
O          0.21474       -6.91174       10.54221
O         -0.17007       -8.84154        9.39269
C         -0.18368       -9.61958       10.64832
C         -0.46356      -11.05926       10.28733
C         -1.35081       -7.10851        7.37000
C          7.54575       -3.21056        5.68812
C          8.74537       -3.27744        6.64014
C          9.47109       -4.62219        6.52943
C         10.52399       -4.83548        7.62143
C         11.29700       -6.14920        7.47081
C         12.25531       -6.43296        8.63106
C         12.99670       -7.76805        8.50442
C         13.94451       -8.04756        9.67288
H          4.93992        3.27991       -3.75086
H          3.61576        2.47973       -2.88374
H          4.88042        1.50957       -3.66251
H          5.33703        3.42112       -1.27747
H          6.59242        2.46233       -2.05328
H          5.40312        0.34913       -1.38365
H          4.13681        1.30228       -0.61357
H          5.82877        2.28293        0.97104
H          7.10345        1.34367        0.19896
H          5.94358       -0.78907        0.85386
H          4.64828        0.13917        1.60672
H          6.29154        1.14613        3.21919
H          7.59988        0.23663        2.46574
H          6.48229       -1.92486        3.10546
H          5.14203       -1.02720        3.82556
H          6.75628        0.05801        5.45422
H          8.07427       -0.87864        4.75637
H          3.30794        0.24944        8.46213
H          4.27787       -1.14667        9.00880
H          2.81896       -2.42529        7.10679
H          1.63796       -1.15311        7.45841
H          1.61104       -1.79853        9.87665
H          2.98180       -2.90188        9.60183
H          3.30021       -4.58475        7.67558
H          2.50466       -6.12043        7.28109
H          2.79154       -6.77386        9.78718
H          3.66361       -5.25560       10.00574
H          5.23844       -5.99087        8.08516
H          4.48140       -7.58493        8.16978
H          5.20458       -7.76902       10.59219
H          5.92294       -6.16125       10.48382
H          7.46399       -6.97783        8.65830
H          6.77146       -8.59310        8.80245
H          7.52743       -8.66822       11.22840
H          8.26796       -7.08256       11.02448
H          9.73497       -8.02984        9.19130
H          9.01726       -9.61422        9.44990
H         10.64421       -8.03338       11.54777
H         11.20092       -9.46014       10.65445
H          9.89151       -9.61226       11.84003
H          0.80788       -7.23606        7.52118
H         -0.95674       -9.18492       11.29643
H          0.79194       -9.48194       11.13464
H         -1.43683      -11.16542        9.79173
H         -0.48522      -11.66029       11.20637
H          0.31496      -11.46987        9.63161
H         -2.21060       -6.76348        7.95461
H         -1.44850       -8.18550        7.19685
H         -1.34804       -6.59285        6.40223
H          7.87567       -3.22477        4.63900
H          6.89581       -4.08117        5.85435
H          8.37985       -3.14024        7.66876
H          9.44003       -2.44783        6.43141
H          9.94147       -4.71442        5.53511
H          8.72708       -5.43681        6.58896
H         10.02547       -4.81471        8.60663
H         11.23368       -3.99031        7.62413
H         11.86108       -6.13543        6.52191
H         10.57978       -6.98493        7.37838
H         11.69124       -6.42042        9.58077
H         12.98999       -5.61269        8.70938
H         13.56353       -7.77996        7.55836
H         12.25924       -8.58462        8.42113
H         14.72309       -7.27423        9.74854
H         14.45154       -9.01547        9.55821
H         13.40478       -8.06588       10.63111
