53

C          2.16303       -0.15903        1.12518
C          3.63890        0.16458        0.88356
C          3.84727        1.36792       -0.04506
C          5.33030        1.66841       -0.30139
C          5.52619        2.84908       -1.23329
O          6.95494        3.01777       -1.45169
C          7.26192        4.06693       -2.31275
N          8.71571        4.26694       -2.17691
C          9.59486        3.87997       -3.03777
C         10.98080        4.10205       -2.57209
C         10.80613        4.40667       -1.05785
C          9.33067        4.88560       -0.95040
C          9.12839        6.40847       -1.00783
C          9.48771        7.09910        0.31272
C          9.28887        8.60258        0.22652
F         10.06886        9.15710       -0.74409
F          7.99771        8.92391       -0.07123
F          9.60016        9.20359        1.39439
C         11.09971        3.16807       -0.20114
C         11.03147        3.47285        1.29159
O         10.67717        4.54684        1.74780
O         11.40871        2.41419        2.01530
C         11.39372        2.58938        3.47600
C         11.87525        1.29827        4.09764
H          2.05000       -1.01888        1.79836
H          1.64706       -0.40387        0.18544
H          1.63530        0.69091        1.58205
H          4.14510       -0.71548        0.45261
H          4.13848        0.36084        1.84710
H          3.35665        2.25509        0.39127
H          3.33777        1.17805       -1.00559
H          5.81923        0.78553       -0.74319
H          5.84403        1.87523        0.65114
H          5.11824        3.78138       -0.80182
H          5.03404        2.67427       -2.20711
H          6.75735        5.01154       -2.03624
H          7.04785        3.84367       -3.37514
H          9.28599        3.43945       -3.98866
H         11.42240        4.93973       -3.14161
H         11.61703        3.23087       -2.78876
H         11.47473        5.21909       -0.74972
H          8.81457        4.45991       -0.08015
H          8.07620        6.62882       -1.24318
H          9.72917        6.82683       -1.83107
H         10.53022        6.91868        0.60316
H          8.86369        6.72813        1.13689
H         12.10314        2.77527       -0.42526
H         10.39921        2.34477       -0.42163
H         10.36748        2.84574        3.77433
H         12.04216        3.44267        3.71840
H         11.21934        0.45786        3.83581
H         11.87437        1.40242        5.19094
H         12.89830        1.05875        3.78015
