63

C          4.94756        4.84434        7.77782
C          5.22196        5.37494        6.36879
C          6.08287        4.42641        5.52527
C          6.34791        4.95093        4.10916
C          7.17303        3.98450        3.27644
O          7.36480        4.54969        1.96818
C          8.08862        3.71513        1.10293
C          8.13359        4.38384       -0.27040
N          8.75767        5.70761       -0.25112
N          7.97817        6.84371       -0.31986
C          8.82532        7.83500       -0.22244
N         10.11813        7.37089       -0.09254
C         10.06409        6.02076       -0.10630
N         11.09381        5.16392        0.02776
C         12.49587        5.56041        0.18006
C         13.20455        5.85658       -1.13362
F         12.61843        6.98143       -1.73236
C          8.48244        9.28887       -0.27187
C          9.62900       10.21311        0.13630
O         10.80296        9.86497        0.21921
O          9.17369       11.43869        0.36047
C         10.15699       12.48510        0.70053
C         10.65064       13.20519       -0.54434
C         11.62138       14.33789       -0.17886
C         12.14246       15.10364       -1.40060
C         13.13537       16.21479       -1.03903
C         13.66354       16.97493       -2.25822
H          4.32954        5.54466        8.35556
H          5.88203        4.68754        8.33662
H          4.41563        3.88211        7.74594
H          5.72026        6.35708        6.43291
H          4.26624        5.55383        5.84821
H          5.58496        3.44281        5.46697
H          7.04267        4.25054        6.04216
H          6.87305        5.91898        4.15653
H          5.39345        5.13509        3.59043
H          6.65877        3.00886        3.18127
H          8.15946        3.79765        3.74540
H          7.60632        2.72499        0.97572
H          9.11146        3.52346        1.49558
H          7.11602        4.55511       -0.63995
H          8.66007        3.74829       -0.99958
H         10.90284        8.04014       -0.02719
H         10.88371        4.17593       -0.05177
H         13.01659        4.74009        0.69358
H         12.55232        6.43466        0.84620
H         13.11959        5.01933       -1.84305
H         14.26674        6.07883       -0.95033
H          7.59934        9.48717        0.34972
H          8.19403        9.56531       -1.30016
H         10.97786       12.01545        1.25743
H          9.59474       13.15346        1.36410
H          9.78720       13.61012       -1.09556
H         11.15403       12.48496       -1.20907
H         12.47632       13.92055        0.38064
H         11.12213       15.04342        0.50747
H         11.29018       15.53846       -1.95128
H         12.62477       14.39583       -2.09743
H         13.98128       15.77672       -0.48261
H         12.65092       16.92183       -0.34469
H         14.18555       16.30248       -2.95502
H         14.37147       17.76111       -1.96335
H         12.84600       17.45723       -2.81430
