65

C          2.47456        7.66038       -6.14640
C          3.98501        7.49970       -5.95746
C          4.42172        6.04155       -5.77813
C          5.93355        5.88147       -5.58245
C          6.36715        4.41965       -5.41113
C          7.86747        4.30721       -5.18888
O          8.26326        2.91064       -4.94594
C          8.63462        2.18969       -6.01108
O          8.70868        2.59248       -7.15916
C          9.00954        0.76353       -5.60470
C         10.53330        0.57079       -5.69785
S         10.98275       -1.16064       -5.17917
C         11.20309       -1.64738       -6.80169
N         11.13816       -0.65487       -7.65963
C         11.13608        0.71918       -7.11639
C         12.55910        1.30090       -7.13167
C         13.23607        1.29109       -8.50746
C         14.66437        1.84604       -8.46358
C         15.41768        1.69093       -9.78876
C         16.85106        2.22370       -9.72950
C         11.47810       -3.06122       -7.20500
C         12.59176       -3.18153       -8.26667
C         13.95580       -2.66666       -7.78871
C         14.99719       -2.58138       -8.91049
C         16.34477       -2.03313       -8.43569
H          2.19710        8.71618       -6.26745
H          1.91890        7.26847       -5.28168
H          2.12270        7.12048       -7.03799
H          4.31128        8.08514       -5.08117
H          4.51395        7.93247       -6.82338
H          4.10220        5.45354       -6.65638
H          3.89321        5.60494       -4.91276
H          6.24885        6.46446       -4.69969
H          6.46233        6.32285       -6.44466
H          6.08803        3.84089       -6.30617
H          5.84115        3.96765       -4.55509
H          8.18382        4.82852       -4.27646
H          8.43816        4.68240       -6.04857
H          8.49535        0.07426       -6.29017
H          8.66716        0.56311       -4.58246
H         11.04819        1.24130       -4.99664
H         11.31016       -0.81693       -8.65110
H         10.45643        1.33520       -7.72570
H         13.18584        0.75195       -6.40812
H         12.48246        2.33513       -6.75973
H         12.63101        1.86607       -9.22886
H         13.28709        0.25821       -8.89658
H         15.22600        1.33132       -7.66394
H         14.63566        2.91042       -8.17440
H         14.86117        2.20854      -10.58814
H         15.43266        0.62388      -10.07131
H         16.86961        3.29610       -9.48586
H         17.36454        2.09459      -10.69131
H         17.44233        1.69911       -8.96410
H         10.53165       -3.48363       -7.58620
H         11.72670       -3.63921       -6.30328
H         12.28904       -2.65665       -9.19058
H         12.66327       -4.24047       -8.55505
H         14.32791       -3.31937       -6.98142
H         13.84473       -1.66615       -7.33350
H         14.60286       -1.94392       -9.72089
H         15.13690       -3.57991       -9.35589
H         16.24147       -1.01919       -8.02065
H         17.06550       -1.97964       -9.26192
H         16.78380       -2.66900       -7.65344
