32

C          2.63550       -0.80678        1.70435
C          2.53650       -0.33207        0.25703
N          3.10207        1.01829        0.04679
C          4.40091        1.35859        0.12048
N          5.33833        0.42689       -0.20389
N          6.54075        0.39524        0.53642
O          6.44965       -0.65758        1.49236
O          7.50498       -0.00901       -0.43110
N          4.76063        2.59891        0.44550
C          6.02207        3.28813        0.11685
C          5.76685        4.75320       -0.28165
C          4.96339        4.87269       -1.58350
C          5.14287        5.56569        0.86305
H          2.17602       -1.79957        1.79806
H          2.10467       -0.12434        2.38091
H          3.68001       -0.88282        2.03532
H          1.49115       -0.26423       -0.06911
H          3.01261       -1.04257       -0.43601
H          2.44147        1.78807        0.00197
H          5.02458       -0.45673       -0.61243
H          6.65537       -1.48556        1.00118
H          8.34638        0.30856       -0.05129
H          4.05340        3.16633        0.90733
H          6.49337        2.74099       -0.70987
H          6.69280        3.23520        0.98677
H          6.77579        5.15979       -0.46385
H          3.93621        4.49186       -1.46982
H          5.43804        4.31988       -2.40630
H          4.88172        5.92268       -1.89220
H          4.09954        5.27168        1.07269
H          5.10421        6.63052        0.60043
H          5.71669        5.47220        1.79552
