66

O          4.14999       -0.23172        5.75224
C          5.53317        0.11785        5.63874
C          5.60271        1.36705        4.77524
N          4.95664        1.11898        3.46891
C          4.72415        2.32630        2.65713
C          6.02439        2.95185        2.12704
C          6.95949        1.97805        1.40011
N          6.44115        1.35875        0.16608
C          5.96410        0.07957        0.17301
N          5.74510       -0.53710        1.34628
N          5.75676       -0.56128       -0.98583
C          5.24675       -1.92914       -1.09600
C          5.48383       -2.51960       -2.50302
C          4.87795       -1.69432       -3.63906
O          5.67269       -0.49509       -3.73829
O          6.86547       -2.76040       -2.72764
C          6.75535        2.00178       -1.10145
O          5.54477        2.29266       -1.78519
C          5.64783        2.80373       -3.07632
C          6.88363        3.04153       -3.68952
C          6.96238        3.53025       -5.00507
C          8.30391        3.81044       -5.63199
C          5.76786        3.76699       -5.68878
C          4.53921        3.54634       -5.05984
C          4.43009        3.07107       -3.74682
C          3.04774        2.91532       -3.12386
C          2.67520        1.45640       -2.80172
C          2.83450        3.83474       -1.90656
O          5.73706        4.00743        1.21271
H          4.05832       -0.97909        6.36221
H          6.10932       -0.70195        5.17149
H          5.97888        0.33735        6.62308
H          6.65842        1.63884        4.63015
H          5.10768        2.20314        5.30478
H          4.04858        0.69431        3.68203
H          4.17502        3.10428        3.22301
H          4.09699        2.04992        1.79571
H          6.61882        3.33526        2.97900
H          7.27680        1.18501        2.08892
H          7.86274        2.53713        1.12096
H          5.57159        0.02381        2.23357
H          5.31166       -1.45240        1.30792
H          5.80569       -0.04954       -1.87292
H          4.16694       -1.96306       -0.86334
H          5.78166       -2.58210       -0.38970
H          4.98226       -3.50131       -2.50231
H          3.82217       -1.45611       -3.42715
H          4.93536       -2.27154       -4.57523
H          5.33525        0.07597       -4.44699
H          7.22699       -1.98548       -3.19224
H          7.39160        1.33867       -1.71829
H          7.30770        2.92482       -0.87526
H          7.81631        2.86235       -3.15457
H          9.02595        3.00922       -5.42136
H          8.73302        4.74498       -5.23876
H          8.22105        3.91903       -6.72028
H          5.79325        4.13990       -6.71368
H          3.61776        3.76131       -5.60595
H          2.34367        3.25168       -3.90267
H          3.32291        1.03864       -2.01902
H          2.75361        0.82313       -3.69775
H          1.63592        1.40057       -2.44755
H          3.48995        3.55909       -1.07015
H          1.79140        3.76963       -1.56524
H          3.03858        4.88202       -2.16729
H          5.27524        4.72139        1.68037
