31

N          2.70466       -1.36203       -2.39262
C          2.68954        0.11732       -2.50254
C          3.16025        0.78520       -1.20582
N          4.62132        0.77937       -0.99262
C          5.45549        1.87235       -0.72346
N          6.67100        1.47616       -0.44232
N          6.62778        0.11330       -0.54233
C          5.40700       -0.33214       -0.87540
N          5.01024       -1.60155       -1.06907
C          5.87044       -2.62435       -0.89268
C          6.64222       -3.54317       -0.73965
C          5.06711        3.31024       -0.78044
C          5.48265        4.04374       -2.07516
C          4.82177        3.46256       -3.34297
F          3.47117        3.34580       -3.22226
F          5.07178        4.23952       -4.41381
F          5.30449        2.21204       -3.61879
O          5.09173        5.38313       -1.88554
H          2.66015       -1.79095       -3.31907
H          1.88658       -1.69748       -1.87865
H          1.68373        0.50388       -2.72790
H          3.34430        0.41482       -3.33132
H          2.68829        0.31305       -0.32911
H          2.85352        1.83530       -1.21742
H          7.45685       -0.45242       -0.37849
H          4.04710       -1.70886       -1.60092
H          7.30897       -4.36859       -0.59756
H          5.58268        3.82599        0.03979
H          3.99110        3.45620       -0.61880
H          6.57257        3.93382       -2.22329
H          5.47059        5.93663       -2.58874
