84

C          0.79565       -0.42203       -0.22433
C          2.26565       -0.04069       -0.41672
C          2.81851        0.84019        0.70963
C          4.29042        1.22355        0.52464
C          4.84708        2.09266        1.65726
C          6.31976        2.47370        1.47230
C          6.88080        3.32319        2.61774
C          8.36129        3.68141        2.44516
C          8.93312        4.48308        3.61989
C         10.42923        4.77429        3.47012
C         11.02539        5.48454        4.71110
C         12.49987        5.69703        4.55317
C         13.43425        4.79438        5.02196
C         14.81895        4.98834        4.81356
C         15.73204        4.04952        5.36334
C         17.07201        4.23048        5.20550
N         17.50184        5.33598        4.52708
C         16.72090        6.28684        3.97056
C         15.30828        6.12711        4.06720
C         14.31514        7.04147        3.55722
C         12.97651        6.82692        3.83646
C         14.59548        8.11629        2.55629
O         15.28849        7.94003        1.57373
C         14.00548        9.56516        2.76865
C         13.21610       10.19430        1.55829
C         11.91623        9.46096        1.06998
C         10.69699        9.55278        2.04624
O         10.55133        8.75174        2.93592
O          9.85149       10.56060        1.81985
F         11.57107       10.03537       -0.12708
F         12.20608        8.15090        0.84683
F         12.84398       11.45553        1.93205
F         14.05653       10.29275        0.50374
F         13.23852        9.66641        3.88420
F         15.09931       10.37055        2.94497
C         17.49535        7.42805        3.37899
C         17.33605        8.69131        4.27102
O         16.63162        8.62326        5.28295
N         18.00002        9.80980        3.89100
C         18.78748        9.93818        2.65856
C         20.30166        9.86810        2.87188
C         17.87480       10.99666        4.76408
C         18.78321       10.96706        5.99444
H          0.43146       -1.05373       -1.04609
H          0.15356        0.47059       -0.18283
H          0.64619       -0.97809        0.71323
H          2.38788        0.48351       -1.37981
H          2.87688       -0.95607       -0.49298
H          2.69582        0.31634        1.67424
H          2.20861        1.75778        0.78698
H          4.41129        1.75427       -0.43627
H          4.89771        0.30500        0.43907
H          4.72717        1.55996        2.61713
H          4.24038        3.01102        1.74553
H          6.44044        3.01732        0.51880
H          6.92349        1.55424        1.37318
H          6.74871        2.78037        3.57020
H          6.28780        4.24929        2.71393
H          8.49673        4.25012        1.50874
H          8.94581        2.75255        2.32238
H          8.76451        3.92418        4.55668
H          8.38284        5.43296        3.72808
H         10.60520        5.39587        2.57628
H         10.97738        3.83134        3.30415
H         10.83001        4.87640        5.60687
H         10.52319        6.45372        4.85003
H         13.11293        3.91256        5.57981
H         15.36090        3.18845        5.91689
H         17.84254        3.56604        5.58838
H         18.50796        5.48029        4.45322
H         12.22546        7.52337        3.46328
H         10.10826       11.05850        1.01856
H         17.16184        7.61711        2.35155
H         18.55974        7.15271        3.31887
H         18.51411       10.90004        2.19878
H         18.46625        9.16777        1.94694
H         20.66030       10.69095        3.50302
H         20.82018        9.93851        1.90622
H         20.59709        8.92370        3.35073
H         16.82474       11.06416        5.07689
H         18.09782       11.86960        4.13529
H         18.53733       10.11572        6.64116
H         18.63738       11.88528        6.57922
H         19.84433       10.90735        5.72063
