55

C         15.11889       -1.67146        7.93356
O         14.03955       -2.58048        8.10245
C         13.07417       -2.47505        7.07245
C         11.95078       -3.44706        7.40761
O         11.03513       -3.45564        6.31410
C          9.93017       -4.31143        6.53864
C          9.00587       -4.26210        5.34226
O          9.66135       -4.86094        4.21415
C          8.87535       -4.85559        3.04242
C          9.74877       -5.35585        1.89365
N         10.23694       -6.74530        2.11792
C         11.33980       -6.90035        2.92842
C         11.82918       -8.14355        3.22016
C         11.20853       -9.31240        2.70993
C         10.06966       -9.12957        1.84503
C          9.61742       -7.81423        1.58110
C          8.35697       -7.56734        0.76802
O          7.29771       -7.33055        1.31005
O          8.60333       -7.65511       -0.53995
C          7.45134       -7.46129       -1.45182
C          6.75168       -8.77661       -1.72278
C          9.41536      -10.25737        1.28133
C          9.87984      -11.52211        1.57404
C         10.98656      -11.70601        2.42842
C         11.67356      -10.63685        3.00179
C         12.81786      -10.86126        3.89857
C         13.68390      -11.87961        3.79124
H         15.80347       -1.82705        8.77562
H         14.76873       -0.62324        7.94004
H         15.65977       -1.85762        6.98724
H         13.51181       -2.73437        6.08719
H         12.67757       -1.44352        7.00095
H         11.44343       -3.13651        8.33992
H         12.37209       -4.45738        7.57259
H          9.35721       -3.99509        7.43305
H         10.26743       -5.35354        6.71153
H          8.74795       -3.21380        5.10638
H          8.07495       -4.81088        5.57570
H          8.54511       -3.83211        2.77632
H          7.97411       -5.48791        3.14856
H         10.64017       -4.72366        1.79608
H          9.19704       -5.32423        0.94807
H         11.76719       -5.97833        3.31282
H         12.71370       -8.20967        3.85026
H          7.91524       -7.04519       -2.35301
H          6.78050       -6.72228       -0.99742
H          7.44545       -9.51772       -2.13998
H          5.95576       -8.60830       -2.46118
H          6.28355       -9.17959       -0.81573
H          8.55057      -10.12347        0.63300
H          9.37686      -12.39547        1.15861
H         11.29951      -12.72153        2.67406
H         12.95981      -10.14253        4.70960
H         13.62614      -12.61264        2.98479
H         14.49791      -11.99947        4.50496
