51

O          1.55966        0.86320       -0.69123
C          2.87409        1.29775       -0.30964
C          2.93214        1.69453        1.17229
C          2.37689        0.59493        2.10999
C          0.85775        0.70710        2.34212
O          0.47594        1.98074        2.88315
C          0.93152        2.17970        4.21252
C          0.33307        1.13706        5.14212
N          0.63604       -0.26407        4.64875
C          0.22794       -0.43582        3.17644
C          0.58032       -1.83304        2.66398
C          0.17245       -2.07913        1.20202
C          0.54848       -3.50484        0.78432
C          0.20224       -3.80415       -0.67558
S          0.73151       -5.48085       -1.08106
O          2.18031       -5.52590       -1.11339
O         -0.03389       -6.39682       -0.27349
O          0.19005       -5.61135       -2.60488
C          0.08349       -1.28820        5.61742
C          1.23767       -1.90460        6.41846
C          2.28291       -2.73910        5.80677
O          2.53330       -1.34180        6.12087
O          4.27188        2.04088        1.52139
H          1.23130        1.44279       -1.39262
H          3.21411        2.14557       -0.92110
H          3.57705        0.45885       -0.48018
H          2.35163        2.61646        1.32716
H          2.94100        0.67146        3.05341
H          2.61320       -0.39523        1.69085
H          0.36248        0.67917        1.36294
H          0.58088        3.17340        4.52079
H          2.03449        2.18420        4.27591
H         -0.76137        1.22587        5.17528
H          0.73965        1.21937        6.15931
H          1.67170       -0.39628        4.73630
H         -0.86349       -0.28606        3.17297
H          0.08686       -2.60051        3.27917
H          1.66508       -2.00152        2.76805
H          0.66103       -1.35586        0.53168
H         -0.91361       -1.92448        1.09160
H          0.03711       -4.23520        1.43052
H          1.63047       -3.65427        0.93117
H          0.71764       -3.13134       -1.37503
H         -0.87913       -3.76736       -0.86820
H          0.97194       -5.65572       -3.18853
H         -0.48171       -2.04780        5.06836
H         -0.61053       -0.76972        6.28742
H          1.03522       -2.02973        7.48533
H          2.24695       -2.97372        4.73997
H          2.83559       -3.44519        6.42965
H          4.87226        1.34169        1.21087
