102

C          1.51515        1.12167       -0.88780
C          3.02539        0.95683       -0.69988
C          3.39508       -0.16067        0.28197
C          4.90362       -0.33574        0.48206
C          5.26451       -1.46884        1.44811
C          6.77188       -1.64981        1.65205
C          7.12727       -2.81109        2.58644
C          8.63465       -2.99494        2.78734
C          8.99190       -4.19923        3.66648
C         10.50548       -4.37797        3.83755
C         10.86206       -5.60674        4.65432
O         12.30704       -5.70390        4.70210
C         12.75813       -6.80884        5.40966
N         14.25309       -6.72183        5.46960
C         14.82798       -5.53471        5.23586
C         16.22032       -5.36315        5.26373
C         16.81638       -4.10642        4.99443
C         18.19345       -3.97330        5.00600
C         18.83750       -2.63777        4.71541
O         20.22681       -2.80469        4.57873
C         20.91579       -1.58904        4.24622
C         22.39261       -1.90288        4.07702
C         23.22472       -0.67406        3.69088
C         24.70865       -1.00045        3.48797
C         25.55978        0.21186        3.09697
C         27.03817       -0.12714        2.87250
C         27.88864        1.08528        2.48481
C         18.99864       -5.10928        5.29598
C         18.44056       -6.34346        5.57108
C         17.03746       -6.50498        5.55907
C         16.37777       -7.73185        5.81825
C         15.01031       -7.85347        5.76725
C         14.31005       -9.16395        6.00321
O         13.38733       -9.00598        7.06171
C         12.41954      -10.07002        7.15821
C         11.31225       -9.61875        8.09598
C         10.18548      -10.64936        8.23915
C          8.99025      -10.10682        9.03139
C          7.83597      -11.10531        9.17008
C          6.63746      -10.53417        9.93228
H          1.28173        1.92676       -1.59820
H          1.01824        1.36410        0.06346
H          1.05725        0.19767       -1.27179
H          3.45965        1.90800       -0.34753
H          3.49885        0.75323       -1.67549
H          2.96177       -1.11271       -0.07303
H          2.91825        0.04012        1.25784
H          5.33608        0.61133        0.85052
H          5.38207       -0.52455       -0.49536
H          4.83258       -2.41437        1.07513
H          4.78370       -1.28361        2.42473
H          7.20295       -0.71399        2.04924
H          7.25523       -1.81193        0.67240
H          6.69785       -3.74504        2.18284
H          6.64314       -2.65554        3.56655
H          9.06150       -2.07815        3.23019
H          9.12158       -3.11051        1.80300
H          8.56117       -5.11261        3.22090
H          8.51547       -4.08742        4.65562
H         10.93742       -3.48781        4.32301
H         10.98398       -4.46549        2.84879
H         10.45547       -6.52408        4.19039
H         10.47050       -5.53937        5.68576
H         12.50633       -7.75942        4.90636
H         12.38223       -6.84433        6.44634
H         14.14140       -4.72227        5.00724
H         16.17563       -3.25060        4.77122
H         18.59793       -1.93109        5.53892
H         18.39315       -2.21001        3.79287
H         20.75527       -0.84302        5.04867
H         20.49113       -1.17192        3.31226
H         22.49861       -2.68315        3.30573
H         22.77395       -2.33445        5.01679
H         23.12399        0.10216        4.46935
H         22.82035       -0.23022        2.76441
H         24.80460       -1.77857        2.71024
H         25.11313       -1.44762        4.41289
H         25.47793        0.98566        3.88086
H         25.14775        0.66807        2.17938
H         27.11633       -0.89830        2.08711
H         27.44750       -0.58742        3.78785
H         27.52488        1.54815        1.55523
H         28.93905        0.80522        2.32614
H         27.86576        1.85730        3.26837
H         20.08020       -4.97962        5.29008
H         19.07895       -7.19980        5.79255
H         16.96330       -8.61917        6.06021
H         15.07482       -9.93021        6.22578
H         13.79278       -9.49147        5.07557
H         12.91320      -10.99006        7.52118
H         12.01460      -10.28317        6.14905
H         10.89390       -8.67366        7.70918
H         11.74585       -9.38885        9.08205
H         10.57320      -11.55943        8.72756
H          9.84208      -10.96335        7.23748
H          8.61821       -9.19065        8.53797
H          9.32623       -9.79290       10.03534
H          8.19947      -12.01318        9.68017
H          7.51524      -11.43032        8.16563
H          6.91800      -10.23823       10.95416
H          5.82525      -11.26906       10.01214
H          6.23038       -9.64300        9.43154
