42

C          1.56913        0.04677       -1.08325
C          2.28891        0.96863       -0.44282
C          3.05660        0.68812        0.83562
C          4.53505        0.67827        0.61905
N          5.25666       -0.42630        0.55307
N          6.52756       -0.01372        0.30178
C          6.58992        1.31031        0.20830
N          5.34420        1.78489        0.40512
C          4.98982        3.22916        0.53320
C          5.08420        3.70511        1.96451
C          6.33730        3.94743        2.54678
C          6.42760        4.35756        3.87688
C          5.26501        4.53398        4.63452
C          4.01338        4.31036        4.05665
C          3.92317        3.89716        2.72504
C          7.61285       -1.00395        0.18393
C          7.40719       -1.96233       -0.99045
C          7.56118       -1.29604       -2.35973
S          7.20898       -2.50438       -3.66141
O          8.22373       -3.53479       -3.63228
O          5.80277       -2.80793       -3.59905
O          7.44691       -1.58984       -4.97913
H          1.02036        0.29040       -1.99267
H          1.49242       -0.98064       -0.72214
H          2.33489        1.98867       -0.83557
H          2.79423       -0.30476        1.22285
H          2.80698        1.42150        1.61811
H          7.47897        1.90272        0.02171
H          3.97770        3.34994        0.13185
H          5.67542        3.77398       -0.12892
H          7.25110        3.83638        1.95744
H          7.40430        4.55288        4.31993
H          5.33649        4.85807        5.67291
H          3.10510        4.46333        4.63958
H          2.94101        3.74428        2.27216
H          7.62620       -1.56058        1.13046
H          8.55002       -0.43644        0.10285
H          6.41608       -2.43004       -0.90120
H          8.14957       -2.76642       -0.88423
H          8.58230       -0.92850       -2.53337
H          6.84577       -0.47694       -2.52199
H          8.24704       -1.92448       -5.42944
