29

O          2.04552       -0.39839        1.44869
C          1.83286        0.91967        0.94277
C          2.92023        1.19329       -0.10992
C          4.31150        1.20805        0.45927
C          4.86522        2.35876        1.05348
Br         3.86027        3.95426        1.17413
C          6.16300        2.36326        1.56638
C          6.92138        1.19847        1.49254
C          6.36411        0.07209        0.91791
N          5.09672        0.08235        0.42727
C          4.62647       -1.19111       -0.19700
C          4.98471       -1.27767       -1.68517
O          6.40334       -1.11302       -1.74994
C          4.51979       -2.61434       -2.25502
H          1.38538       -0.58480        2.13441
H          1.88417        1.67173        1.74757
H          0.85149        1.00985        0.44722
H          2.72569        2.18203       -0.54693
H          2.83063        0.46082       -0.92007
H          6.56769        3.27027        2.01506
H          7.93884        1.15827        1.87757
H          6.90105       -0.86731        0.81949
H          3.55317       -1.29337       -0.01750
H          5.13663       -1.99944        0.34221
H          4.48769       -0.45020       -2.22795
H          6.69155       -1.21070       -2.67142
H          4.99563       -3.45073       -1.72489
H          4.78955       -2.68376       -3.31767
H          3.42860       -2.72278       -2.18377
