32

C          1.65817        1.15119        0.65392
O          2.40569       -0.05511        0.30575
C          3.56360       -0.23116        0.93213
O          4.02863        0.51521        1.78337
C          4.30101       -1.47917        0.43155
N          4.75558       -2.36439        1.50827
C          4.05970       -3.63995        1.74651
C          5.08340       -4.78067        1.80570
C          6.07403       -4.48597        2.93829
N          6.41990       -3.06001        2.97386
C          5.85695       -2.09121        2.23325
N          6.39411       -0.85764        2.19389
N          4.39879       -6.04974        2.08006
N          3.39267       -6.24678        1.08756
N          5.26966       -7.17158        2.17298
H          0.79035        1.14446       -0.00992
H          2.28024        2.03795        0.48611
H          1.35020        1.10317        1.70504
H          5.17065       -1.12931       -0.14864
H          3.65630       -2.06045       -0.23491
H          3.35774       -3.81732        0.92829
H          3.48259       -3.59901        2.68450
H          5.62700       -4.80799        0.83282
H          7.00260       -5.06090        2.82155
H          5.60846       -4.76930        3.89581
H          7.10522       -2.76952        3.66317
H          7.27963       -0.68262        2.65390
H          5.72514       -0.07567        2.09078
H          2.70412       -6.88170        1.49489
H          3.79530       -6.73939        0.27845
H          5.54080       -7.33278        3.14211
H          6.10369       -7.09085        1.57784
