25

F          4.07331        0.25009        2.19383
C          2.81860       -0.02196        1.87110
C          1.96591        0.90929        1.42003
C          2.23926        2.35293        1.20838
C          2.24414        2.68668       -0.30519
N          2.10122        4.12805       -0.55953
N          3.15919        4.89802       -0.66984
N          2.84165        6.15124       -0.48732
C          1.51404        6.19797       -0.18944
N          0.99725        4.91840       -0.21442
C         -0.44776        4.60274       -0.18595
O         -1.15268        5.50089        0.20245
C         -0.89937        3.26164       -0.65497
N          0.84997        7.31273        0.05928
F          0.69638        0.52302        1.10294
F          2.50835       -1.28490        2.05314
H          3.20118        2.63255        1.65657
H          1.45500        2.93622        1.72101
H          1.45338        2.15397       -0.84206
H          3.20441        2.43359       -0.76960
H         -0.61256        2.47085        0.05439
H         -0.47979        3.01744       -1.64074
H         -1.99194        3.29187       -0.71716
H          1.34597        8.19560       -0.02541
H         -0.13430        7.27717        0.31476
