74

C         10.91388       -3.39480        6.74492
C         10.37008       -2.77655        5.45460
C         10.83886       -3.50398        4.18898
C         10.30504       -2.88662        2.89234
C         10.80832       -3.58934        1.62757
C         10.29500       -2.95706        0.32876
C         10.83936       -3.65223       -0.92411
C         10.36192       -3.01368       -2.21730
O         10.90910       -3.76041       -3.31685
C         10.53892       -3.26777       -4.58232
C         11.04946       -4.22185       -5.67030
C         10.57279       -3.73160       -7.05716
C         11.03065       -4.53916       -8.27588
C         10.48260       -3.95607       -9.58421
C         10.92401       -4.73815      -10.82624
N         12.38785       -4.71461      -10.97231
C         10.56582       -5.67046       -5.37636
C         11.77478       -6.58497       -5.60703
C         12.91131       -5.64728       -5.61030
N         12.59338       -4.39590       -5.61188
C         13.66612       -3.30647       -5.57993
C         13.85577       -2.84378       -4.08436
C         14.16443       -3.98273       -3.10209
C         14.91247       -1.73176       -3.94738
C         14.98525       -3.89577       -6.13334
O         14.73469       -4.49243       -7.40219
C         13.26182       -2.14115       -6.49601
H         10.56667       -2.84640        7.63112
H         12.01407       -3.38593        6.75971
H         10.59100       -4.44077        6.85474
H         10.67491       -1.71782        5.39586
H          9.26732       -2.77109        5.48318
H         10.53359       -4.56400        4.24351
H         11.94315       -3.51011        4.16259
H         10.59084       -1.82063        2.85285
H          9.20119       -2.90240        2.90584
H         10.51367       -4.65304        1.65627
H         11.91271       -3.58241        1.62270
H         10.57400       -1.88915        0.30975
H          9.19196       -2.98376        0.31821
H         10.53995       -4.71311       -0.92453
H         11.94101       -3.63793       -0.90705
H         10.69221       -1.95844       -2.28558
H          9.25719       -3.02019       -2.28379
H         10.90822       -2.23674       -4.74104
H          9.43654       -3.22677       -4.68982
H         10.83166       -2.67345       -7.19464
H          9.47196       -3.75693       -6.99809
H         10.68547       -5.58376       -8.19228
H         12.12809       -4.57824       -8.34252
H         10.80865       -2.90522       -9.68389
H          9.38086       -3.93032       -9.55634
H         10.38105       -4.34247      -11.70504
H         10.61786       -5.79125      -10.71915
H         12.69280       -3.79749      -11.30347
H         12.68365       -5.38266      -11.68412
H          9.71664       -5.92808       -6.01781
H         10.24546       -5.73497       -4.33035
H         11.76141       -7.11917       -6.57315
H         11.91185       -7.35977       -4.83772
H         13.95290       -5.95777       -5.62751
H         12.89144       -2.41127       -3.78480
H         15.14278       -4.44895       -3.28869
H         13.39064       -4.75960       -3.09588
H         14.20146       -3.57423       -2.08386
H         15.92742       -2.08315       -4.18148
H         14.92856       -1.38817       -2.90505
H         14.69761       -0.85550       -4.57076
H         15.43483       -4.61828       -5.42899
H         15.68893       -3.05435       -6.21657
H         15.57735       -4.64584       -7.85615
H         12.39657       -1.58543       -6.11948
H         13.06601       -2.49054       -7.51477
H         14.09888       -1.43715       -6.55234
