67

C          7.26151       -5.19286       -9.93321
C          7.20035       -3.68730      -10.19805
C          7.87413       -2.85760       -9.10067
C          7.81735       -1.34763       -9.34979
C          8.50973       -0.52852       -8.25671
C          8.44965        0.98378       -8.49697
C          9.14551        1.78347       -7.38698
C          9.07303        3.27789       -7.64801
O          9.63086        4.04013       -6.50876
C         10.92496        4.31524       -6.52106
O         11.70431        3.99869       -7.41930
C         11.30360        5.10939       -5.27145
C         12.77815        5.31031       -4.98998
N         13.62840        4.97060       -5.98365
C         14.95988        5.12735       -5.88939
C         15.48956        5.70930       -4.75880
C         14.66971        6.13033       -3.68732
C         13.26698        5.86637       -3.78874
C         12.23368        6.11966       -2.70526
C         11.83529        4.85499       -1.91590
C         15.34019        6.89391       -2.52151
C         15.16581        6.12805       -1.14864
C         15.46508        4.62096       -1.22509
C         15.97992        6.75571       -0.00673
C         16.83270        7.19744       -2.81464
O         17.64444        6.01965       -2.85596
C         14.71865        8.32046       -2.45575
H          6.77754       -5.76323      -10.73747
H          6.75637       -5.45197       -8.99099
H          8.30211       -5.54168       -9.85744
H          6.14846       -3.37114      -10.29777
H          7.67801       -3.46206      -11.16639
H          8.92822       -3.17240       -9.00359
H          7.39959       -3.08523       -8.12986
H          6.76333       -1.03006       -9.43242
H          8.28099       -1.12023      -10.32555
H          9.56518       -0.84253       -8.17895
H          8.04979       -0.75962       -7.28025
H          7.39552        1.30058       -8.57300
H          8.91378        1.21898       -9.46977
H         10.20039        1.47514       -7.31352
H          8.67047        1.56416       -6.41754
H          8.03755        3.63469       -7.70446
H          9.61756        3.56908       -8.55509
H         10.80449        4.63934       -4.41525
H         10.82032        6.09728       -5.37077
H         13.15454        4.53886       -6.82009
H         15.55666        4.78629       -6.73362
H         16.56982        5.80884       -4.69043
H         11.33599        6.55984       -3.16463
H         12.59330        6.86744       -1.99672
H         11.49447        4.03649       -2.56434
H         11.01805        5.09410       -1.22379
H         12.67708        4.47174       -1.32811
H         14.10645        6.24318       -0.87253
H         16.52673        4.43596       -1.42436
H         14.88650        4.11063       -2.00772
H         15.21044        4.14628       -0.26730
H         17.05674        6.58006       -0.13471
H         15.68757        6.28593        0.94215
H         15.80946        7.83481        0.10273
H         17.18699        7.87452       -2.02281
H         16.90119        7.75527       -3.76849
H         18.57548        6.29249       -2.85916
H         13.67234        8.32704       -2.13767
H         14.77579        8.81618       -3.43460
H         15.27714        8.93807       -1.74114
