63

C          1.26842       -0.57519        0.86727
C          2.75647       -0.73097        1.19223
C          3.33459        0.49790        1.91233
C          4.80760        0.30624        2.23477
O          5.33390        1.44573        3.01497
C          5.88453        2.46070        2.32024
O          6.02072        2.54310        1.12103
C          6.34182        3.53622        3.26048
N          6.10727        3.36493        4.60573
C          6.45187        4.25505        5.53776
C          7.10383        5.45052        5.18646
C          7.39275        5.65567        3.78569
C          6.98142        4.67521        2.84479
C          8.07654        6.82111        3.39539
C          8.48719        7.72104        4.35548
C          8.19763        7.53586        5.73450
C          7.47043        6.41983        6.18048
C          7.12890        6.16678        7.62536
C          8.23796        5.37776        8.38725
C          7.73694        4.87403        9.71754
C          7.59710        5.74411       10.81012
C          7.10178        5.27754       12.02874
C          6.73753        3.93477       12.17176
C          6.87610        3.05891       11.09254
C          7.37131        3.52908        9.87373
C          8.62518        8.59141        6.72156
O          7.88644        9.01460        7.58051
C         10.08866        9.21232        6.68682
C         11.24108        8.31558        7.27543
C         11.71955        7.05420        6.47036
C         12.23188        7.31949        5.01552
O         11.51022        7.16207        4.06546
O         13.50565        7.71742        4.92056
F         12.73451        6.49948        7.20836
F         10.70316        6.15348        6.41583
F         12.33611        9.11129        7.42566
F         10.83939        7.89268        8.50631
F         10.44744        9.58656        5.41482
F         10.05935       10.32340        7.44864
H          0.88424       -1.46462        0.35152
H          1.08950        0.29098        0.21420
H          0.67074       -0.43578        1.77977
H          3.32151       -0.90841        0.26283
H          2.90628       -1.62581        1.81871
H          2.77792        0.67819        2.84634
H          3.21132        1.39178        1.28027
H          5.42141        0.21130        1.32993
H          4.97797       -0.55569        2.89160
H          5.63670        2.49355        4.86513
H          6.20423        3.99113        6.56404
H          7.16898        4.80219        1.77834
H          8.29886        6.99622        2.34319
H          9.03232        8.60689        4.04133
H          6.18448        5.61144        7.69794
H          6.94334        7.11508        8.13698
H          9.10737        6.03396        8.52629
H          8.58275        4.52997        7.77477
H          7.88566        6.79324       10.70959
H          7.00481        5.96219       12.87201
H          6.35701        3.57060       13.12639
H          6.60981        2.00687       11.20298
H          7.50379        2.83361        9.03978
H         13.94450        7.72640        5.79364
