109

C          2.24635       -1.36361        1.48653
C          3.53733       -1.65598        0.71782
C          4.00682       -0.45806       -0.11724
C          5.29667       -0.72275       -0.87665
O          5.63093        0.47080       -1.60660
C          6.84618        0.39216       -2.32123
C          7.09868        1.73489       -3.03837
C          8.54263        1.82251       -3.55112
C          8.83816        3.06733       -4.39689
C         10.34182        3.21828       -4.64350
S         10.75172        4.49039       -5.86410
C         10.67907        3.54947       -7.40446
S         10.24778        1.93606       -7.45458
N         11.01673        4.28441       -8.48727
C         11.39675        5.70239       -8.42580
C         10.23785        6.66242       -8.72529
C         10.67930        8.12909       -8.67737
C          9.58948        9.10775       -9.12877
C         10.01753       10.57728       -9.05096
C          8.99222       11.55025       -9.64223
C          9.39822       13.02307       -9.51404
C          8.40615       13.98888      -10.16666
C         11.06828        3.66836       -9.82410
C         12.45629        3.10744      -10.15454
C         12.51737        2.47304      -11.54703
C         13.93057        2.01902      -11.92752
C         14.01832        1.34181      -13.29863
C         15.44768        0.95819      -13.69537
C         15.54577        0.23175      -15.04135
C         16.98617       -0.08671      -15.45095
O          6.25082        1.94182       -4.15530
C          4.88456        2.22967       -3.87536
C          4.19072        2.50889       -5.19926
C          2.67938        2.78990       -5.07465
C          2.08158        3.22258       -6.39575
C          2.05177        4.57872       -6.75024
C          1.53985        4.98429       -7.98421
C          1.04789        4.03359       -8.88236
C          1.07075        2.67977       -8.53852
C          1.58472        2.27776       -7.30345
N          4.83949        3.42879       -3.01395
C          5.81823        3.67082       -2.13609
N          5.75712        4.76294       -1.34302
N          6.86125        2.84574       -2.07264
H          1.92369       -2.23552        2.07022
H          1.42508       -1.09928        0.80411
H          2.37837       -0.52584        2.18717
H          3.38536       -2.52638        0.05839
H          4.33185       -1.94465        1.42584
H          4.15742        0.41650        0.53744
H          3.22231       -0.17871       -0.84018
H          5.18162       -1.56895       -1.58003
H          6.12386       -0.97179       -0.18459
H          6.82515       -0.39919       -3.09388
H          7.69440        0.17615       -1.64035
H          8.74768        0.91867       -4.14452
H          9.21080        1.77499       -2.67395
H          8.45282        3.97532       -3.90619
H          8.32597        2.97433       -5.36243
H         10.77169        2.27840       -5.02356
H         10.88010        3.52063       -3.73228
H         12.20779        5.85241       -9.15526
H         11.83323        5.91466       -7.43877
H          9.42555        6.48517       -8.00244
H          9.82550        6.43324       -9.72171
H         11.56859        8.26497       -9.31780
H         11.00442        8.38180       -7.65300
H          8.68077        8.95702       -8.51976
H          9.29902        8.86674      -10.16650
H         10.98000       10.70391       -9.57696
H         10.21371       10.84460       -7.99778
H          8.01362       11.39859       -9.15252
H          8.83536       11.30748      -10.70817
H         10.39535       13.16288       -9.96502
H          9.51377       13.27562       -8.44627
H          8.31393       13.79744      -11.24617
H          8.72058       15.03365      -10.04088
H          7.40168       13.88993       -9.72832
H         10.78310        4.44464      -10.55060
H         10.31216        2.87337       -9.85473
H         12.72654        2.36293       -9.38975
H         13.20312        3.91691      -10.08733
H         12.15300        3.19392      -12.30013
H         11.82645        1.61365      -11.58796
H         14.31330        1.33037      -11.15414
H         14.60431        2.89393      -11.91076
H         13.59576        2.01399      -14.06622
H         13.38030        0.44054      -13.30250
H         15.88749        0.32042      -12.90802
H         16.07116        1.86938      -13.72786
H         15.06678        0.84503      -15.82373
H         14.96030       -0.70229      -14.99123
H         17.57957        0.83234      -15.56823
H         17.02542       -0.63067      -16.40478
H         17.48915       -0.70735      -14.69385
H          4.42358        1.39733       -3.32097
H          4.35310        1.63125       -5.84019
H          4.70186        3.35266       -5.68977
H          2.48523        3.58355       -4.33208
H          2.16676        1.89089       -4.69901
H          2.42435        5.33021       -6.04900
H          1.51676        6.04384       -8.24182
H          0.64270        4.34828       -9.84436
H          0.68150        1.93309       -9.23132
H          1.59281        1.21774       -7.03938
H          4.23770        4.19759       -3.29376
H          4.87107        5.21905       -1.16618
H          6.53877        5.02186       -0.75495
H          7.47944        2.90157       -1.26991
