75

C          0.41687       -0.24975        0.29811
C          1.87928        0.19883        0.35705
C          2.60524       -0.27391        1.62171
C          4.06840        0.17852        1.68947
C          4.78938       -0.30699        2.95415
C          6.24108        0.14963        2.97834
O          6.93070       -0.26699        4.20336
C          7.47221       -1.50195        4.19356
O          7.44473       -2.25394        3.23466
C          8.15852       -1.80770        5.51701
C          9.70817       -1.93257        5.39980
C         10.28395       -3.30866        5.02188
C         10.12678       -3.64855        3.54001
C         10.92610       -4.88122        3.10953
C         10.63131       -5.29228        1.66865
O         11.27531       -6.51797        1.40223
C         11.02912       -6.96619        0.06922
C         11.61825       -8.35828       -0.10434
O         11.26857       -8.76254       -1.41518
C         11.66710      -10.09270       -1.73259
C         11.10111      -10.40776       -3.11024
O         11.48927      -11.72694       -3.44750
C         10.99084      -12.12839       -4.71515
N         10.52468       -2.46974        2.73728
C         10.51847       -1.20756        3.19080
N         10.81503       -0.19279        2.34263
C         10.30978        1.19153        2.46678
C         11.29265        2.10388        3.20293
O         11.38185        1.64515        4.56102
C          9.97943        1.72553        1.07269
N         10.24396       -0.93075        4.46899
H         -0.07434        0.10463       -0.61799
H         -0.15563        0.13912        1.15308
H          0.33358       -1.34651        0.31604
H          1.93002        1.29940        0.29994
H          2.41660       -0.17512       -0.53103
H          2.56216       -1.37569        1.67732
H          2.06712        0.09533        2.51193
H          4.11160        1.28057        1.63800
H          4.60405       -0.19107        0.79753
H          4.75492       -1.40644        3.00055
H          4.27752        0.07313        3.85228
H          6.31802        1.24500        2.99650
H          6.79773       -0.24781        2.11729
H          7.74649       -2.74850        5.90991
H          7.91656       -1.01079        6.23013
H         10.11427       -1.67446        6.38728
H          9.79992       -4.09223        5.61851
H         11.35227       -3.31134        5.28898
H          9.05856       -3.81845        3.32899
H         10.64341       -5.71803        3.76593
H         12.00549       -4.71103        3.24437
H         10.98963       -4.52124        0.94813
H          9.53560       -5.38898        1.51752
H         11.48186       -6.26953       -0.66210
H          9.94173       -7.00631       -0.12935
H         11.19294       -9.04425        0.65377
H         12.71659       -8.33889        0.03554
H         11.26995      -10.80801       -0.98797
H         12.76943      -10.18524       -1.74016
H         11.48661       -9.67756       -3.84951
H          9.99741      -10.31029       -3.08945
H         11.33962      -13.15332       -4.88731
H         11.36892      -11.47641       -5.52434
H          9.88531      -12.11348       -4.73838
H         10.47162       -2.58483        1.72996
H         11.19263       -0.45495        1.43744
H          9.38528        1.14049        3.06581
H         10.91306        3.13868        3.17171
H         12.27989        2.07251        2.71103
H         12.05829        2.15255        5.03495
H         10.87701        1.77533        0.43763
H          9.56450        2.73874        1.13794
H          9.23613        1.08764        0.57809
H         10.53290       -0.00256        4.80026
