72

C          0.87686       -1.79577       -3.85697
C          2.14584       -1.47258       -3.07048
S          2.28993        0.35792       -2.98267
C          3.77880        0.57646       -2.14279
N          4.39933        1.71471       -1.94019
N          5.53077        1.42382       -1.19001
C          5.51848        0.14079       -1.01114
O          4.45538       -0.49812       -1.56821
N          6.46544       -0.65797       -0.36649
C          6.24757       -1.98654       -0.00010
C          7.41205       -2.43283        0.53652
N          8.31887       -1.38925        0.49728
C          7.74395       -0.29165       -0.03801
C          8.38831        1.02345       -0.31092
C          8.04631        2.15592        0.69121
C          8.33811        1.73143        2.12631
O          7.92146        0.64210        2.53986
N          9.07445        2.61311        2.85885
C          9.53563        2.52469        4.19723
C         10.23638        3.63654        4.69276
C         10.75706        3.61732        5.98367
C         10.58652        2.48939        6.79197
C          9.88398        1.38856        6.29700
C          9.35104        1.39260        5.00590
C          9.67833       -1.45877        1.05035
C         10.67927       -1.93048       -0.01206
C         12.09947       -2.17843        0.51390
C         13.13826       -0.99090        0.43811
C         12.90344        0.36752        1.21096
C         12.75982        0.44517        2.78445
C         13.88279       -0.09090        3.76054
C         15.35795        0.47866        3.72173
C         15.66263        2.00954        3.98319
C         15.19806        2.66000        5.33891
F         15.57267        1.91112        6.38835
F         15.76714        3.87265        5.44084
F         13.86062        2.81538        5.36524
F         17.01362        2.11475        3.93423
F         15.13510        2.74317        2.96826
F         16.03596       -0.23753        4.65240
F         15.87970        0.19569        2.49978
F         13.39457        0.10528        5.01251
F         13.99180       -1.42789        3.55340
F         12.54148        1.75350        3.06145
F         11.62939       -0.24559        3.11826
F         13.89573        1.20000        0.83660
F         11.71964        0.89397        0.72967
F         14.34754       -1.47348        0.79557
F         13.19092       -0.62498       -0.88006
F         12.06644       -2.65967        1.79519
F         12.66349       -3.15287       -0.26622
H          0.75339       -2.88562       -3.90762
H          0.92836       -1.41340       -4.88473
H         -0.01685       -1.37887       -3.37361
H          3.04106       -1.86670       -3.56859
H          2.09391       -1.86572       -2.04730
H          5.29357       -2.47235       -0.15454
H          7.66596       -3.39784        0.95771
H          8.06872        1.35293       -1.31073
H          9.47444        0.87216       -0.34592
H          6.97612        2.39434        0.60809
H          8.60218        3.05285        0.38455
H          9.33425        3.47376        2.38541
H         10.37502        4.51783        4.06155
H         11.29931        4.48606        6.35741
H         10.99563        2.47239        7.80194
H          9.74216        0.50735        6.92371
H          8.79720        0.53851        4.62718
H          9.64272       -2.15603        1.89460
H          9.91442       -0.47790        1.46385
H         10.73151       -1.23007       -0.85629
H         10.35314       -2.89871       -0.41823
