60

C          1.39314        6.28033       -4.50569
C          2.88679        6.23682       -4.18016
C          3.19723        5.47677       -2.88529
C          4.69817        5.43743       -2.57295
C          5.00815        4.65071       -1.31296
O          6.44786        4.67143       -1.11346
C          6.86099        3.88083       -0.04722
N          8.34147        4.04709        0.04280
C          8.88788        5.27083        0.05115
C         10.26862        5.38997        0.14674
C         11.05410        4.24182        0.22223
C         10.36588        2.98637        0.16354
N          9.03382        2.91659        0.08348
C         11.09162        1.66749        0.16593
C         10.22153        0.41868        0.01089
C         11.05858       -0.86333       -0.03478
C         10.20468       -2.12496       -0.19237
C         11.02716       -3.41620       -0.24703
C         10.16136       -4.66928       -0.38679
C         12.55718        4.28806        0.29844
C         13.21691        5.48601        1.01187
C         12.93968        5.65111        2.50838
C         13.21340        4.41409        3.42483
Br        15.01363        3.68829        3.19850
F         13.00839        4.71987        4.71389
F         12.31040        3.43467        3.10024
Br        13.98073        7.17182        3.16872
F         11.59352        5.94301        2.70107
H          1.20562        6.81905       -5.44392
H          0.82556        6.78720       -3.71176
H          0.97936        5.26711       -4.61540
H          3.27938        7.26408       -4.09960
H          3.43423        5.76537       -5.01316
H          2.80805        4.44718       -2.96674
H          2.65420        5.94583       -2.04690
H          5.08432        6.46331       -2.45987
H          5.24261        4.98164       -3.41530
H          4.67514        3.60149       -1.40899
H          4.51600        5.09046       -0.42601
H          6.69520        2.80078       -0.19267
H          6.42635        4.20219        0.92057
H          8.19899        6.11032       -0.02716
H         10.70393        6.38717        0.17404
H         11.67583        1.60508        1.10197
H         11.84919        1.69996       -0.63788
H          9.61753        0.50148       -0.90655
H          9.50257        0.36591        0.84318
H         11.66317       -0.94352        0.88555
H         11.77902       -0.80328       -0.86960
H          9.59671       -2.04209       -1.11041
H          9.48623       -2.18593        0.64381
H         11.64446       -3.49167        0.66342
H         11.73470       -3.35931       -1.09085
H          9.46377       -4.76836        0.45786
H         10.77544       -5.57907       -0.41927
H          9.56311       -4.63930       -1.30942
H         12.92644        4.30171       -0.74396
H         12.93462        3.34905        0.71879
H         12.93575        6.44002        0.54433
H         14.30192        5.39353        0.88178
