77

C          0.65263        0.27898        0.16957
C          2.18018        0.19330        0.11988
C          2.87132        1.00422        1.22203
C          4.40105        0.95538        1.15383
C          5.09158        1.73622        2.27691
C          6.62066        1.74175        2.17195
C          7.30457        2.48210        3.32579
C          8.83191        2.54410        3.19850
C          9.48979        3.25166        4.39049
C         10.99367        3.38637        4.23916
O         11.50184        4.04481        5.43438
C         12.83273        4.41327        5.37928
N         13.05136        5.48768        6.44434
C         12.24484        6.74260        6.03091
O         13.07456        7.41074        5.14761
C         14.35083        7.42332        5.80381
C         14.54505        5.97850        6.30009
C         15.43315        5.81618        7.52216
C         16.85890        6.32988        7.25221
C         17.76818        6.14355        8.47419
C         19.18538        6.67397        8.25061
C         12.64490        4.91292        7.79393
C         12.25130        5.92922        8.87589
O         12.08942        5.21307       10.10929
C         13.20347        5.17294       10.93095
O         14.25680        5.68418       10.61411
C         12.91037        4.42759       12.20561
C         13.63750        5.02138       13.42268
C         13.37733        4.21882       14.69829
H          0.18926       -0.31801       -0.62776
H          0.30617        1.31655        0.05143
H          0.26231       -0.09085        1.12961
H          2.53648        0.54234       -0.86422
H          2.49378       -0.86167        0.19641
H          2.53584        0.63706        2.20830
H          2.53767        2.05559        1.16383
H          4.73365        1.34908        0.17710
H          4.73554       -0.09664        1.18355
H          4.79296        1.31251        3.25196
H          4.72450        2.77782        2.27634
H          6.91788        2.20196        1.21337
H          6.99028        0.70207        2.13558
H          7.03790        1.99550        4.28010
H          6.90563        3.50971        3.38841
H          9.09806        3.06465        2.26245
H          9.23579        1.52145        3.10640
H          9.27427        2.69912        5.31898
H          9.05611        4.25804        4.51172
H         11.25921        3.99815        3.35774
H         11.48184        2.40155        4.13858
H         13.10981        4.87026        4.41296
H         13.53331        3.59170        5.62284
H         12.05637        7.31983        6.94870
H         11.31168        6.43504        5.54781
H         14.34335        8.13812        6.64648
H         15.10544        7.72717        5.07190
H         14.94448        5.36881        5.47690
H         15.49843        4.75340        7.80286
H         15.02008        6.34390        8.39340
H         16.83299        7.40050        6.98744
H         17.29022        5.80668        6.38124
H         17.80708        5.07277        8.73431
H         17.31054        6.64799        9.34068
H         19.68343        6.15559        7.41810
H         19.80462        6.53297        9.14580
H         19.18042        7.74921        8.01825
H         13.48823        4.30767        8.14405
H         11.79706        4.24950        7.59412
H         11.26742        6.37199        8.67733
H         13.00185        6.72108        9.00722
H         13.24165        3.38569       12.04385
H         11.82314        4.38494       12.35838
H         13.30956        6.06357       13.56072
H         14.71528        5.06400       13.20980
H         12.30621        4.18541       14.94464
H         13.89949        4.66672       15.55350
H         13.72949        3.18170       14.59989
