49

C         -1.07822        2.73006        2.87774
C         -0.62234        1.43504        2.20248
N          0.24149        1.64053        1.01741
C         -0.37483        1.89422       -0.15701
O         -1.59580        1.95273       -0.31747
C          0.53955        2.09102       -1.40639
N         -0.18221        2.85011       -2.41883
N         -0.04754        4.14767       -2.53871
N         -0.96439        4.60013       -3.35880
C         -1.72370        3.53999       -3.75097
N         -1.25704        2.41085       -3.15087
C         -1.56104        0.98398       -3.35267
C         -0.70408        0.37121       -4.46795
C         -1.16880       -1.04880       -4.83028
C         -2.42242       -1.05325       -5.71387
S         -3.02285       -2.74258       -5.93352
O         -2.06083       -3.49668       -6.70865
O         -3.50303       -3.20231       -4.65499
O         -4.32327       -2.46968       -6.86857
N         -2.73820        3.67712       -4.63737
N         -3.09248        4.95573       -5.10473
N         -3.67717        2.64174       -4.75524
C          1.70402        1.61489        1.19218
C          2.31732        2.95946        1.59234
H         -1.74068        2.48596        3.71912
H         -1.64232        3.36084        2.17916
H         -0.23496        3.30954        3.27368
H         -1.49627        0.86227        1.86577
H         -0.05262        0.80584        2.89953
H          0.85006        1.12380       -1.82530
H          1.43492        2.69117       -1.21374
H         -2.62685        0.96053       -3.60025
H         -1.43418        0.48619       -2.38386
H          0.35004        0.33957       -4.15205
H         -0.74229        1.02080       -5.35698
H         -1.35896       -1.62896       -3.91358
H         -0.35778       -1.56475       -5.36203
H         -2.21639       -0.65512       -6.71720
H         -3.26510       -0.50120       -5.27399
H         -4.13930       -2.86653       -7.74240
H         -2.37033        5.30077       -5.74150
H         -3.17656        5.61468       -4.32455
H         -3.90682        2.54661       -5.74740
H         -4.53872        2.91632       -4.26936
H          2.17022        1.23303        0.27301
H          1.91451        0.85734        1.95980
H          2.09677        3.74463        0.85523
H          3.40858        2.86282        1.67171
H          1.93971        3.29973        2.56386
