41

C          1.33984        0.47161        0.56961
C          2.35880       -0.36221        0.34173
C          3.52765       -0.48101        1.26809
N          4.84738       -0.01463        0.64663
C          4.81509        1.40140        0.07498
C          4.98864        1.22999       -1.43852
C          5.91648        0.00760       -1.52763
C          5.39689       -0.95486       -0.45959
C          6.39865       -1.93908        0.13893
C          6.87868       -2.95493       -0.90760
C          7.83817       -3.99028       -0.31615
S          8.33873       -5.14289       -1.61562
O          7.21015       -5.98532       -1.95483
O          9.05354       -4.39089       -2.61497
O          9.42090       -6.04023       -0.81223
C          5.52659        2.47916       -2.14404
C          4.55849        3.65749       -2.10317
F          5.10665        4.72370       -2.81264
H          0.47709        0.50784       -0.09521
H          1.31618        1.13036        1.44092
H          2.32979       -1.02988       -0.52326
H          3.70080       -1.52238        1.57824
H          3.38120        0.12771        2.17024
H          5.53578       -0.03060        1.40877
H          5.66117        1.94855        0.51376
H          3.87805        1.87971        0.37793
H          4.00941        0.96287       -1.87258
H          6.95823        0.29882       -1.31191
H          5.90298       -0.45529       -2.52167
H          4.51988       -1.49670       -0.84076
H          5.93471       -2.47890        0.98216
H          7.26159       -1.38061        0.54421
H          7.38663       -2.43544       -1.73340
H          6.00924       -3.47343       -1.34183
H          7.37438       -4.59164        0.47799
H          8.76313       -3.53616        0.06580
H          9.04995       -6.93998       -0.72346
H          5.73009        2.23538       -3.19745
H          6.48713        2.78241       -1.69568
H          4.37167        4.01187       -1.07484
H          3.59271        3.40198       -2.57054
