77

C          2.57982        4.90958        0.12690
C          4.01485        4.54957       -0.26671
C          4.09547        3.44426       -1.32609
C          5.52842        3.10603       -1.74846
C          5.62319        1.95265       -2.75344
C          7.05994        1.66748       -3.19923
C          7.19564        0.46952       -4.14710
C          8.64295        0.28188       -4.61644
C          8.83278       -0.97521       -5.46123
N         10.19393       -1.01015       -6.15051
C         11.31154       -1.86741       -5.45999
C         10.99502       -3.35399       -5.72771
C         11.71066       -4.43354       -4.88092
C         11.05855       -5.79330       -5.17708
C         13.22765       -4.52023       -5.10719
C         12.66889       -1.37344       -6.05636
O         13.02608       -1.89899       -7.32569
C         11.33292       -1.50907       -3.97110
C         10.05997       -1.24502       -7.64229
C          9.60929        0.05713       -8.32019
O         10.41418        1.06661       -7.70094
C         10.00417        2.44052       -7.93242
C         10.36297        3.24901       -6.71639
C         11.70757        3.42130       -6.35049
C         12.03768        4.13062       -5.19475
C         11.02891        4.68647       -4.39999
C          9.68951        4.53135       -4.76424
C          9.35944        3.81106       -5.91563
C          9.79105       -0.03214       -9.83218
H          2.55903        5.69095        0.89871
H          2.04325        4.03561        0.52519
H          2.00933        5.28161       -0.73720
H          4.57455        4.23122        0.62934
H          4.53193        5.45007       -0.64014
H          3.51429        3.74698       -2.21516
H          3.60241        2.53435       -0.94039
H          6.12239        2.85253       -0.85244
H          6.00342        4.00617       -2.17835
H          5.00305        2.18155       -3.63792
H          5.18773        1.04217       -2.30615
H          7.69018        1.49245       -2.30977
H          7.47678        2.56477       -3.68774
H          6.53772        0.60772       -5.02248
H          6.84155       -0.44377       -3.63854
H          9.30349        0.25448       -3.73791
H          8.94991        1.16220       -5.20340
H          8.07940       -1.01431       -6.25854
H          8.72554       -1.89505       -4.87338
H         10.53607       -0.02513       -6.13651
H         11.18043       -3.56909       -6.79196
H          9.91424       -3.49940       -5.57012
H         11.53634       -4.21155       -3.81480
H         11.19412       -6.07809       -6.23174
H          9.97945       -5.77983       -4.96898
H         11.50744       -6.58354       -4.56135
H         13.45976       -4.71924       -6.16661
H         13.65236       -5.35382       -4.53249
H         13.76917       -3.61740       -4.79181
H         13.45118       -1.57995       -5.31265
H         12.62768       -0.27685       -6.17044
H         13.54201       -2.71031       -7.19726
H         10.41333       -1.79475       -3.44681
H         11.51031       -0.43569       -3.81394
H         12.15734       -2.04679       -3.48903
H          9.34740       -2.05912       -7.81565
H         11.04615       -1.53691       -8.02040
H          8.54476        0.26750       -8.09049
H          8.91561        2.47251       -8.10727
H         10.51254        2.81276       -8.83685
H         12.49809        3.00814       -6.98042
H         13.08442        4.26717       -4.92059
H         11.28895        5.25002       -3.50342
H          8.90132        4.97353       -4.15369
H          8.31144        3.69478       -6.20208
H         10.85018       -0.17435      -10.08577
H          9.43185        0.88010      -10.32481
H          9.21476       -0.87370      -10.24224
