70

C          6.80327        8.87060        2.98020
C          5.98548        8.98549        1.68838
C          5.22830        7.70820        1.29067
C          4.05087        7.40152        2.22980
N          3.36124        6.12978        1.92435
C          2.45927        6.05453        0.92695
S          1.97701        7.41126        0.03965
S          1.87550        4.38558        0.63269
C          0.75969        4.52804       -0.79448
C         -0.72289        4.30525       -0.46692
C         -1.36108        5.34640        0.45943
N         -1.27588        6.72639       -0.05193
C         -1.70955        7.11840       -1.27792
N         -2.94749        6.82911       -1.74355
C         -4.09992        6.72837       -0.80384
C         -4.84564        8.07194       -0.74051
O         -3.88529        9.09579       -0.50258
C         -5.06160        5.58333       -1.15579
C         -4.43241        4.19254       -1.24844
C         -3.25544        7.12339       -3.15392
C         -2.53521        6.19241       -4.15105
C         -2.20338        6.90716       -5.44862
F         -1.32022        7.97823       -5.16407
N         -0.83686        7.80513       -2.02991
C          3.71623        4.96206        2.75500
C          4.97667        4.18583        2.31099
C          6.24685        4.54580        3.09306
C          7.47799        3.77896        2.60800
H          7.34863        9.80166        3.18253
H          7.54782        8.06355        2.90889
H          6.17716        8.66877        3.86147
H          6.66081        9.24824        0.86034
H          5.27229        9.82286        1.76840
H          5.92493        6.85621        1.27644
H          4.83734        7.81578        0.26915
H          3.30908        8.21051        2.17090
H          4.38860        7.31885        3.27088
H          1.10699        3.76337       -1.50199
H          0.96255        5.51741       -1.23492
H         -0.86291        3.31389       -0.00865
H         -1.27544        4.27571       -1.42045
H         -0.84317        5.36542        1.42792
H         -2.40144        5.06999        0.66701
H         -0.35744        7.14376        0.17033
H         -3.66375        6.56057        0.18744
H         -5.58662        8.00501        0.07491
H         -5.40122        8.25333       -1.67990
H         -4.34848        9.93050       -0.33563
H         -5.58261        5.81485       -2.09944
H         -5.84956        5.58324       -0.38717
H         -3.62104        4.15908       -1.98824
H         -5.18430        3.45289       -1.55023
H         -4.02171        3.86211       -0.28447
H         -3.03815        8.18141       -3.37406
H         -4.33878        7.01855       -3.27125
H         -3.15992        5.31577       -4.37614
H         -1.60037        5.81121       -3.71567
H         -3.09028        7.34645       -5.93091
H         -1.69301        6.24566       -6.16174
H          0.14576        7.79338       -1.75334
H         -1.09732        8.29389       -2.87976
H          2.84172        4.29846        2.78279
H          3.84565        5.34063        3.77974
H          5.13052        4.33751        1.23094
H          4.77547        3.11011        2.43402
H          6.07534        4.33415        4.16146
H          6.43996        5.62832        3.02761
H          7.32707        2.69200        2.67856
H          8.36513        4.02966        3.20407
H          7.70605        4.01253        1.55754
