122

C          2.45560       -1.02107       -0.77349
C          1.15749       -0.58611       -0.14494
C          0.66822       -1.21659        1.01229
C         -0.56863       -0.85809        1.54948
C         -1.32543        0.15998        0.96037
C         -0.84557        0.84264       -0.17258
C          0.38522        0.43582       -0.71862
C         -1.63077        2.00293       -0.75497
C         -1.33831        3.43050       -0.17654
C         -1.09857        3.43697        1.33328
N          0.30162        2.94358        1.63015
C          1.41825        3.81250        1.04344
C          1.22455        3.83257       -0.49145
C         -0.21424        4.22242       -0.88274
C          2.27909        4.72128       -1.17475
C          2.27831        4.67843       -2.70725
C          3.39798        5.54435       -3.29718
C          3.31876        5.71858       -4.81659
C          4.42873        6.61775       -5.37075
C          4.31799        6.89454       -6.87323
C          5.43913        7.79657       -7.39930
C          5.31240        8.15283       -8.88377
C          6.45682        9.03810       -9.38780
C          6.33145        9.43896      -10.86113
C          7.48377       10.32635      -11.33983
C          7.33931       10.74981      -12.80781
N          8.42726       11.59905      -13.27098
C          8.50080       12.96463      -13.09846
C          9.72925       13.39478      -13.56729
C         10.42933       12.24718      -14.03340
C          9.60461       11.15442      -13.83331
C          1.45652        5.16579        1.77810
C          2.87706        5.71542        1.98862
C          2.87772        7.12760        2.58391
C          4.26134        7.78740        2.57854
C          4.23982        9.23449        3.08342
C          5.55326        9.98999        2.85476
C          5.49500       11.45502        3.30020
C          6.75402       12.25777        2.95511
C          6.66356       13.73120        3.36571
C          7.89775       14.55776        2.98919
C          7.78198       16.02668        3.40632
C          9.00607       16.86246        3.00746
N          8.92233       18.24681        3.45036
C          8.26580       19.26049        2.78547
C          8.30307       20.39414        3.57763
C          9.00032       20.05273        4.77016
C          9.36546       18.72234        4.66592
H          2.30797       -1.93317       -1.37221
H          3.21292       -1.25559       -0.01329
H          2.86184       -0.25154       -1.44263
H          1.25074       -2.01320        1.47844
H         -0.95472       -1.38303        2.42430
H         -2.30599        0.41145        1.37050
H          0.74481        0.91634       -1.63219
H         -2.69976        1.80053       -0.59463
H         -1.48413        2.04586       -1.84400
H         -2.26503        4.00432       -0.32982
H         -1.78656        2.77844        1.87798
H         -1.17944        4.44741        1.75291
H          0.36771        1.98300        1.23906
H          0.43399        2.86899        2.64571
H          2.33781        3.25252        1.27787
H          1.40629        2.79976       -0.83092
H         -0.33413        4.10594       -1.96777
H         -0.36285        5.29651       -0.67938
H          3.27883        4.42264       -0.81668
H          2.13906        5.76863       -0.85817
H          1.31247        5.03914       -3.09707
H          2.38334        3.63654       -3.05737
H          4.37722        5.11587       -3.02195
H          3.36271        6.54167       -2.82378
H          2.33609        6.14849       -5.07939
H          3.35978        4.73151       -5.30919
H          5.41038        6.16159       -5.15325
H          4.41777        7.57908       -4.82708
H          3.34078        7.36310       -7.08539
H          4.32230        5.93963       -7.42725
H          6.41258        7.30573       -7.22389
H          5.46212        8.72794       -6.80614
H          4.34935        8.66527       -9.05525
H          5.27273        7.22644       -9.48333
H          7.41670        8.51515       -9.23322
H          6.50931        9.95086       -8.76871
H          5.37234        9.96445      -11.01521
H          6.28082        8.52923      -11.48518
H          8.44416        9.80019      -11.21523
H          7.54497       11.23226      -10.71489
H          6.39352       11.29370      -12.95655
H          7.30161        9.86354      -13.45951
H          7.67024       13.51356      -12.66604
H         10.07608       14.42298      -13.58595
H         11.41810       12.22245      -14.48012
H          9.75010       10.10118      -14.05207
H          0.98173        5.06105        2.77053
H          0.85147        5.91054        1.23830
H          3.41534        5.73703        1.03008
H          3.44242        5.02719        2.63972
H          2.47283        7.10427        3.61042
H          2.18561        7.76016        2.00031
H          4.65569        7.77184        1.54696
H          4.96661        7.18965        3.18110
H          3.98308        9.24855        4.15683
H          3.42576        9.77876        2.57242
H          5.80619        9.94894        1.78027
H          6.37745        9.47474        3.37831
H          5.31453       11.50226        4.38832
H          4.62077       11.93900        2.82950
H          6.93727       12.19337        1.86777
H          7.63241       11.79376        3.43708
H          6.49952       13.79811        4.45535
H          5.77047       14.18308        2.89941
H          8.06037       14.49354        1.89856
H          8.79399       14.11114        3.45479
H          7.64752       16.09881        4.49780
H          6.88292       16.47674        2.95455
H          9.13316       16.85872        1.91362
H          9.92207       16.42667        3.43492
H          7.83668       19.09125        1.80285
H          7.88833       21.36305        3.31860
H          9.22578       20.70881        5.60473
H          9.91106       18.07677        5.34683
