51

C          1.51671       -0.17370       -0.00856
C          2.99331       -0.08164       -0.40314
C          3.65586       -1.46257       -0.51177
C          5.13136       -1.37237       -0.91307
S          5.77746       -3.09199       -0.98968
C          7.45698       -2.88120       -1.34086
N          8.42501       -3.68386       -0.98930
N          9.57893       -3.23794       -1.63011
C          9.25190       -2.18750       -2.31088
O          7.91120       -1.86874       -2.18905
C         10.12009       -1.32031       -3.16244
C          9.87548        0.17095       -2.89688
N          8.67149        0.45509       -3.75831
C          8.88734       -0.27428       -5.10274
C          9.87135       -1.43112       -4.71210
C          9.52672       -2.84249       -5.22001
O          8.65310       -3.09798       -6.01899
O         10.37864       -3.70898       -4.66552
C         10.18004       -5.13636       -4.97926
C         10.93041       -5.93615       -3.93957
C          7.54340       -0.51799       -5.75184
C          6.49709       -1.19899       -5.11455
C          5.27526       -1.31484       -5.77833
N          5.03941       -0.81371       -6.99937
C          6.04556       -0.17091       -7.60439
C          7.30478        0.01103       -7.02238
H          1.06747        0.82428        0.07762
H          1.39274       -0.67830        0.96042
H          0.93713       -0.73696       -0.75416
H          3.53790        0.52619        0.33843
H          3.08702        0.44711       -1.36680
H          3.11166       -2.07650       -1.24836
H          3.57355       -1.98680        0.45394
H          5.71487       -0.81533       -0.16676
H          5.24015       -0.89432       -1.89769
H         11.15339       -1.59867       -2.92615
H         10.70210        0.79228       -3.26348
H          9.65418        0.42531       -1.85425
H          8.49487        1.45607       -3.90451
H          7.82909        0.05153       -3.31379
H          9.43568        0.44415       -5.72563
H         10.83454       -1.19593       -5.18986
H         10.55376       -5.30106       -5.99945
H          9.09982       -5.33207       -4.97166
H         12.00648       -5.72288       -3.96762
H         10.79166       -7.00651       -4.14238
H         10.55510       -5.72387       -2.93075
H          6.62192       -1.68097       -4.14460
H          4.44624       -1.85050       -5.30816
H          5.83713        0.22591       -8.60121
H          8.08407        0.54989       -7.56518
