95

C          3.86142       -2.27755       -5.55357
C          5.25948       -2.23376       -4.93196
C          5.94088       -3.60536       -4.87279
C          7.34511       -3.56884       -4.26238
C          8.01602       -4.94356       -4.18549
C          9.42647       -4.90492       -3.59063
C         10.07236       -6.28687       -3.45884
C         11.49034       -6.24676       -2.88269
C         12.08030       -7.63470       -2.61875
C         13.50009       -7.59016       -2.04891
C         14.04175       -8.97321       -1.67541
C         15.44014       -8.96027       -1.07248
O         15.59613       -8.11782        0.10002
C         14.73679       -8.36812        1.16589
N         14.91317       -9.71240        1.76181
C         13.76625      -10.62468        1.95553
C         14.39508      -12.02652        1.83773
N         15.80668      -11.71344        2.11332
C         16.06485      -10.40377        1.90573
N         17.31100       -9.92478        1.83354
C         17.78647       -8.56214        2.06756
O         18.78420       -8.68998        3.04751
C         19.53944       -7.48301        3.22421
C         14.21381      -12.67376        0.46342
O         15.03754      -13.81556        0.42840
C         14.87183      -14.59010       -0.77589
C         15.79264      -15.79705       -0.73365
C         15.58323      -16.71839       -1.94267
C         16.49492      -17.95116       -1.93949
C         16.19303      -18.92447       -3.08438
C         17.08769      -20.16872       -3.09309
C         16.72371      -21.17063       -4.19471
C         17.60555      -22.42343       -4.20857
C         17.20716      -23.44144       -5.28359
C         18.10078      -24.68387       -5.30545
H          3.39830       -1.28160       -5.57638
H          3.19267       -2.94200       -4.98595
H          3.89614       -2.65144       -6.58785
H          5.19778       -1.81658       -3.91231
H          5.89618       -1.53742       -5.50380
H          5.99680       -4.02888       -5.89135
H          5.30851       -4.30111       -4.29283
H          7.29178       -3.13336       -3.24872
H          7.98132       -2.88410       -4.85051
H          8.05814       -5.38812       -5.19531
H          7.38569       -5.62261       -3.58413
H          9.39058       -4.42632       -2.59591
H         10.06853       -4.25696       -4.21281
H         10.09175       -6.78190       -4.44530
H          9.43690       -6.92195       -2.81605
H         11.48424       -5.67326       -1.93867
H         12.15136       -5.68934       -3.56864
H         12.07542       -8.22512       -3.55132
H         11.42224       -8.17754       -1.91604
H         13.51520       -6.93106       -1.16456
H         14.18210       -7.11955       -2.77703
H         14.09358       -9.61466       -2.57128
H         13.33071       -9.48701       -1.00338
H         16.16466       -8.53593       -1.78003
H         15.77356       -9.98576       -0.83115
H         13.66963       -8.32401        0.89036
H         14.93245       -7.58210        1.90761
H         13.00705      -10.43952        1.18365
H         13.31047      -10.45843        2.94230
H         14.02190      -12.70622        2.61450
H         16.51617      -12.43508        2.02713
H         18.06106      -10.61120        1.88624
H         16.95031       -7.93263        2.41042
H         18.19035       -8.13823        1.13042
H         20.29733       -7.70616        3.98142
H         18.89964       -6.65930        3.58184
H         20.03370       -7.18232        2.28534
H         14.48484      -11.95768       -0.34165
H         13.14453      -12.93436        0.33104
H         15.09504      -13.95162       -1.65270
H         13.81465      -14.90725       -0.85369
H         15.60325      -16.35417        0.19767
H         16.83971      -15.45508       -0.69313
H         15.74198      -16.15043       -2.87597
H         14.53057      -17.05047       -1.96517
H         16.38882      -18.48003       -0.97637
H         17.54950      -17.62943       -1.99421
H         16.28923      -18.39774       -4.05011
H         15.13676      -19.23987       -3.01774
H         17.02299      -20.66990       -2.11121
H         18.14257      -19.86297       -3.20680
H         16.78432      -20.67135       -5.17801
H         15.66761      -21.47104       -4.07505
H         17.56575      -22.90910       -3.21735
H         18.65962      -22.12884       -4.35679
H         17.23040      -22.95326       -6.27267
H         16.15853      -23.74416       -5.12240
H         19.14778      -24.41877       -5.51579
H         17.77939      -25.39810       -6.07586
H         18.08200      -25.20808       -4.33834
