50

C          3.47975        1.01534        7.31180
C          3.82898        0.14742        6.10022
C          5.31357       -0.24388        6.06992
C          5.66202       -1.05481        4.82062
S          7.44023       -1.50266        4.92270
C          7.69295       -2.10186        3.32882
N          6.87841       -2.26548        2.31956
N          7.65759       -2.75156        1.26260
C          8.86755       -2.85251        1.72530
O          9.00903       -2.47270        3.01312
N          9.99954       -3.29285        1.06170
C          9.98639       -3.71755       -0.24224
N         11.13328       -4.13072       -0.81216
C         11.06641       -4.67586       -2.19369
C         12.18073       -5.68465       -2.43903
C         12.13514       -6.93434       -1.55357
O          9.80539       -5.29975       -2.36711
C          8.73110       -4.38886       -2.24068
N          8.85848       -3.70023       -0.92894
C          7.41798       -5.14327       -2.31988
C          6.17880       -4.25653       -2.14042
C          4.89366       -4.99472       -2.54672
N          4.94083       -5.36471       -3.96473
H          2.41240        1.27194        7.31841
H          4.04826        1.95669        7.30628
H          3.70296        0.49646        8.25531
H          3.57520        0.68552        5.17208
H          3.21196       -0.76609        6.10485
H          5.55742       -0.82428        6.97546
H          5.93563        0.66541        6.10194
H          5.51467       -0.47716        3.89890
H          5.08127       -1.98438        4.75405
H         10.89142       -3.16307        1.53106
H         11.87781       -4.46912       -0.20884
H         11.15601       -3.82029       -2.88738
H         13.14112       -5.15494       -2.33195
H         12.10762       -5.96816       -3.49834
H         12.26647       -6.70849       -0.48416
H         12.94746       -7.61615       -1.83250
H         11.18640       -7.47200       -1.66885
H          8.79369       -3.61330       -3.02820
H          8.02019       -3.33840       -0.42974
H          7.43493       -5.94966       -1.56974
H          7.37007       -5.61348       -3.31303
H          6.27301       -3.34601       -2.75835
H          6.06875       -3.91896       -1.09651
H          4.02651       -4.36668       -2.27128
H          4.80889       -5.92140       -1.95800
H          4.71086       -4.56580       -4.55712
H          4.25739       -6.09000       -4.17698
