91

C          0.31379       -0.56838       -0.20571
C          1.83492       -0.58131       -0.03665
C          2.53934       -1.59215       -0.94841
C          4.06329       -1.60191       -0.79355
C          4.76941       -2.62341       -1.69121
C          6.29450       -2.60895       -1.54451
C          7.01160       -3.64186       -2.42031
C          8.53630       -3.59771       -2.26974
C          9.26801       -4.64325       -3.12073
C         10.77571       -4.56116       -2.95428
O         11.39146       -5.57846       -3.76322
C         12.79759       -5.56081       -3.69799
C         13.37061       -6.73126       -4.52572
N         14.78125       -6.91038       -4.18362
C         15.66712       -5.92450       -4.78179
C         15.45381       -5.71387       -6.28185
N         13.98966       -5.46194       -6.59335
C         13.13737       -6.64159       -6.06644
C         11.68025       -6.56673       -6.53552
C         10.82619       -7.73018       -6.00395
C          9.43235       -7.72114       -6.64365
C          8.55331       -8.83603       -6.07069
S          6.96714       -8.87447       -6.94621
O          6.23273       -7.66551       -6.65329
O          7.18775       -9.31287       -8.30495
Cl         6.03240      -10.43495       -5.93203
C         13.77633       -5.10438       -8.05482
C         14.51400       -3.83556       -8.46791
C         14.09889       -3.36965       -9.87115
N         14.84439       -2.17289      -10.21823
C         14.47545       -1.58929      -11.52275
C         15.39595       -0.44513      -11.86314
C         16.54269       -0.65528      -12.63987
C         17.42979        0.38072      -12.93894
C         17.16401        1.66522      -12.45869
C         16.02518        1.90459      -11.68932
C         15.14615        0.85724      -11.38849
O         14.01480        1.05295      -10.63748
H         -0.16065        0.16042        0.46555
H         -0.12154       -1.55446        0.01477
H          0.02824       -0.30556       -1.23534
H          2.08715       -0.80493        1.01387
H          2.23671        0.42705       -0.23376
H          2.28036       -1.37543       -1.99999
H          2.14377       -2.60284       -0.74430
H          4.32107       -1.80555        0.26083
H          4.45738       -0.59306       -1.00925
H          4.50192       -2.43142       -2.74513
H          4.38928       -3.63461       -1.46358
H          6.56036       -2.78360       -0.48707
H          6.67313       -1.60023       -1.78673
H          6.74218       -3.47899       -3.47845
H          6.64764       -4.65288       -2.16778
H          8.80013       -3.74285       -1.20795
H          8.89724       -2.58901       -2.53633
H          9.01473       -4.50728       -4.18559
H          8.93359       -5.65589       -2.84214
H         11.06762       -4.70993       -1.89770
H         11.15314       -3.56730       -3.26721
H         13.16499       -5.68984       -2.66368
H         13.18234       -4.56938       -4.03697
H         12.83914       -7.63206       -4.18877
H         15.09206       -7.86203       -4.37258
H         16.71005       -6.22855       -4.62172
H         15.55061       -4.96044       -4.25867
H         15.73554       -6.59995       -6.86832
H         16.02589       -4.85220       -6.64330
H         13.69991       -4.63394       -6.04821
H         13.61132       -7.52798       -6.51990
H         11.65098       -6.61021       -7.63408
H         11.22132       -5.61731       -6.22062
H         10.72611       -7.64644       -4.91341
H         11.32388       -8.69119       -6.21941
H          9.51803       -7.84557       -7.73427
H          8.94755       -6.74933       -6.46486
H          8.31034       -8.68310       -5.01083
H          8.98885       -9.83506       -6.20910
H         12.69769       -4.96732       -8.18623
H         14.08520       -5.98184       -8.64063
H         15.60326       -3.99282       -8.46617
H         14.30337       -3.01653       -7.75955
H         13.02496       -3.11639       -9.87542
H         14.22352       -4.20777      -10.59577
H         15.84835       -2.36752      -10.22516
H         13.43587       -1.23604      -11.44915
H         14.51497       -2.33800      -12.34049
H         16.73197       -1.65896      -13.02871
H         18.31230        0.19063      -13.54870
H         17.83971        2.48952      -12.68863
H         15.81278        2.91108      -11.31943
H         13.93255        2.00015      -10.44130
