50

C          1.64820        1.80950        3.20743
C          0.51890        1.23940        2.38966
C          0.41959       -0.13668        2.14097
C         -0.61997       -0.65989        1.36968
C         -1.59949        0.17951        0.82606
C         -1.50801        1.55773        1.07173
C         -0.46784        2.07558        1.84127
C         -2.74202       -0.40630        0.00670
C         -3.08364        0.39874       -1.22540
C         -4.31325        1.11338       -1.23351
C         -4.75140        1.88037       -2.29284
C         -6.06032        2.61856       -2.23364
C         -3.90247        1.92411       -3.44560
C         -2.64719        1.20309       -3.46371
C         -2.22703        0.45619       -2.33161
C         -0.90380       -0.27147       -2.36073
C         -0.87390       -1.50395       -3.25521
C          0.33581       -1.89940       -3.84594
C          0.39962       -3.04520       -4.64157
C         -0.74874       -3.81130       -4.86090
C         -1.95850       -3.42466       -4.27940
C         -2.02084       -2.27769       -3.48357
C         -1.87133        1.26139       -4.65785
C         -2.28670        1.98859       -5.73834
N         -3.47361        2.67274       -5.66772
C         -4.26270        2.65319       -4.58296
H          2.23332        1.01895        3.69282
H          1.27339        2.48508        3.98909
H          2.33496        2.39539        2.57780
H          1.16827       -0.81303        2.55792
H         -0.67057       -1.73693        1.19352
H         -2.25865        2.23832        0.66402
H         -0.42153        3.15123        2.02421
H         -3.64374       -0.49288        0.63269
H         -2.47680       -1.43314       -0.28970
H         -4.94197        1.04468       -0.34318
H         -6.55158        2.45007       -1.26921
H         -6.75584        2.28512       -3.01844
H         -5.92503        3.70471       -2.34784
H         -0.62463       -0.55303       -1.33649
H         -0.11239        0.42549       -2.67884
H          1.23822       -1.30785       -3.67385
H          1.34847       -3.33926       -5.09164
H         -0.70038       -4.70548       -5.48273
H         -2.85858       -4.01813       -4.44447
H         -2.97448       -1.98699       -3.03802
H         -0.93868        0.70692       -4.73576
H         -1.73823        2.06650       -6.67370
H         -3.77236        3.21400       -6.47735
H         -5.18377        3.22893       -4.64977
