82

C          0.51475       -0.88517        0.31039
C          1.85522       -1.61620        0.19989
C          2.73847       -1.43557        1.44056
C          4.06819       -2.18886        1.32637
N          4.91441       -2.02233        2.50965
C          6.02829       -1.25541        2.52894
O          6.49933       -0.70020        1.52906
C          6.67812       -1.08201        3.91001
C          8.20385       -0.93491        3.89135
S          9.02763       -2.48207        3.25637
C          9.51511       -1.68420        1.84498
N          9.31161       -0.39839        1.78520
C          8.80349        0.22206        3.04065
C          9.93622        0.97018        3.76590
C          9.36726        1.86619        4.87171
C         10.36382        2.83589        5.51966
C         11.12843        2.36272        6.81687
C         12.10580        1.12367        6.79270
C         13.39683        1.08749        5.88415
C         14.53544        2.17659        6.01891
C         15.24944        2.35711        7.41094
F         15.65798        1.17169        7.89543
F         16.31845        3.14942        7.23341
F         14.42714        2.93667        8.30119
F         15.48892        1.79938        5.12735
F         14.03960        3.37906        5.63775
F         13.95824       -0.12847        6.10391
F         12.99032        1.12841        4.58109
F         12.50075        0.91656        8.06987
F         11.35962        0.03447        6.40651
F         11.81082        3.42184        7.30830
F         10.16041        2.01781        7.72130
F         11.27836        3.28993        4.60913
F          9.65345        3.93010        5.94860
C          9.44911        0.37675        0.54183
O         10.38261        1.38023        0.77741
C         10.40471        2.43885       -0.21281
C         11.18487        3.59944        0.37978
C         11.44076        4.72776       -0.62655
C         12.15518        5.92725        0.00757
C         12.48779        7.04115       -0.98999
C         13.15909        8.25648       -0.34189
C         13.52242        9.36271       -1.33885
C         14.17300       10.58194       -0.68109
H         -0.09609       -1.03866       -0.58860
H          0.65812        0.19817        0.43361
H         -0.06732       -1.24293        1.17205
H          2.40092       -1.25759       -0.68877
H          1.67684       -2.69182        0.03313
H          2.19316       -1.78532        2.33453
H          2.94780       -0.36500        1.60139
H          4.65345       -1.82269        0.47285
H          3.89216       -3.26523        1.17606
H          4.58588       -2.41807        3.38521
H          6.39915       -1.90011        4.59133
H          6.26792       -0.15993        4.35858
H          8.55831       -0.83477        4.92553
H          9.95847       -2.22551        1.00776
H          8.00442        0.91495        2.74186
H         10.46516        1.58708        3.03238
H         10.65763        0.24135        4.15759
H          8.88544        1.29720        5.67994
H          8.59323        2.52173        4.44316
H          8.44364        0.77319        0.30261
H          9.75181       -0.33138       -0.25355
H          9.36674        2.73098       -0.45669
H         10.88096        2.05833       -1.13407
H         12.14589        3.21541        0.75876
H         10.63580        3.98941        1.25278
H         10.48548        5.06293       -1.06630
H         12.04491        4.34075       -1.46493
H         13.08524        5.58173        0.49185
H         11.52658        6.33574        0.81808
H         11.56388        7.36400       -1.50129
H         13.14512        6.63772       -1.78009
H         14.07136        7.93123        0.18892
H         12.49108        8.67033        0.43443
H         12.61331        9.67611       -1.87984
H         14.20120        8.95029       -2.10451
H         13.50314       11.03998        0.06204
H         14.42218       11.35371       -1.42188
H         15.10331       10.30833       -0.16143
