37

C          1.21563       -0.55930        0.69112
C          2.71312       -0.56193        0.37990
C          3.02636       -0.99060       -1.05836
C          4.52817       -0.97330       -1.36624
C          4.83404       -1.39959       -2.79052
O          6.26640       -1.33328       -2.98717
C          6.67323       -1.73167       -4.26955
C          8.19920       -1.59974       -4.22461
S          8.96263       -2.08662       -5.81384
C         10.75604       -1.85180       -5.48782
C         11.60120       -2.30260       -6.67648
C         13.06987       -1.96648       -6.42364
F         13.19647       -0.58729       -6.22312
C          8.79039       -3.76241       -5.84615
C          8.62617       -4.95594       -5.97501
H          1.02377       -0.24650        1.72609
H          0.77907       -1.56042        0.56014
H          0.67152        0.12972        0.02868
H          3.23733       -1.23410        1.07943
H          3.12949        0.44415        0.55437
H          2.49587       -0.32386       -1.75979
H          2.62234       -2.00307       -1.23170
H          5.06181       -1.64187       -0.67209
H          4.93046        0.03967       -1.20580
H          4.33815       -0.73464       -3.52219
H          4.49155       -2.43431       -2.98031
H          6.24987       -1.08377       -5.06375
H          6.37858       -2.77771       -4.48988
H          8.64067       -2.21237       -3.42802
H          8.49953       -0.54743       -4.10295
H         10.98854       -2.38404       -4.55538
H         10.83763       -0.76519       -5.32807
H         11.27162       -1.79680       -7.59642
H         11.51365       -3.38823       -6.83300
H         13.67888       -2.24550       -7.29552
H         13.46212       -2.47252       -5.52744
H          8.48377       -6.01642       -6.07274
