57

N          5.92338        0.91164       -0.47043
C          5.80368       -0.37183        0.22810
C          4.37124       -0.91946        0.12811
C          3.81182       -0.99257       -1.30481
C          4.55632       -1.89530       -2.27539
C          4.17059       -1.83301       -3.76149
C          4.92487       -3.04744       -4.32931
C          4.71370       -4.14532       -3.28946
N          4.46407       -3.42305       -1.95390
C          3.20142       -3.90245       -1.27408
C          3.30515       -5.34913       -0.77352
C          4.44318       -5.52975        0.24145
C          1.95206       -5.73839       -0.15962
C          4.49943       -0.48689       -4.41927
C          4.02868       -0.36570       -5.87854
C          4.15248        1.08574       -6.39102
N          3.64530        1.36208       -7.71939
C          2.19359        1.31966       -7.87444
C          1.80773        1.68176       -9.29882
O          2.32521        0.65368      -10.15581
O          4.72630       -1.27801       -6.74056
H          6.89677        1.21562       -0.49915
H          5.41415        1.64049        0.03378
H          6.07991       -0.33639        1.29863
H          6.51688       -1.07033       -0.24186
H          3.70250       -0.26529        0.71005
H          4.33722       -1.89672        0.63845
H          3.89707        0.01618       -1.73417
H          2.73803       -1.23121       -1.29629
H          5.63675       -1.68604       -2.20521
H          3.08087       -2.00364       -3.85014
H          5.99226       -2.80194       -4.43401
H          4.56784       -3.35220       -5.31823
H          5.56073       -4.83033       -3.16886
H          3.81511       -4.73742       -3.49725
H          5.23191       -3.64928       -1.31135
H          2.38441       -3.78276       -1.99805
H          3.01396       -3.23473       -0.42459
H          3.48981       -6.01459       -1.63386
H          4.30647       -4.87606        1.11671
H          5.44485       -5.33811       -0.17923
H          4.46541       -6.56489        0.60529
H          1.71368       -5.10496        0.70816
H          1.97648       -6.77931        0.18645
H          1.13238       -5.64562       -0.88552
H          5.58783       -0.30456       -4.37071
H          4.02286        0.32095       -3.84143
H          2.97288       -0.68168       -5.93844
H          5.22574        1.35866       -6.36355
H          3.64572        1.75881       -5.67847
H          4.07432        0.75300       -8.41795
H          1.74609        2.06015       -7.19070
H          1.74222        0.33293       -7.63661
H          2.24174        2.66324       -9.55698
H          0.70767        1.74467       -9.37654
H          2.18998        0.92258      -11.07673
H          5.57116       -0.86725       -6.99239
