66

C          1.82905        1.44102       -1.07858
C          2.49997        0.27562       -0.34756
N          2.98242       -0.78026       -1.24719
C          2.28613       -1.89861       -1.57848
O          2.75190       -2.78956       -2.29580
C          0.85257       -2.04886       -0.99162
C          0.04108       -3.00156       -1.81921
C         -1.09781       -2.54726       -2.53352
C         -1.83170       -3.36998       -3.36865
C         -1.45371       -4.72035       -3.55960
C         -0.30139       -5.18777       -2.82705
C          0.42185       -4.32456       -1.96468
C          0.09774       -6.51380       -3.00939
N         -0.58237       -7.30674       -3.84565
C         -1.68437       -6.92571       -4.57542
C         -2.13991       -5.61985       -4.43803
C         -3.32396       -5.15784       -5.24907
C         -2.88094       -4.47878       -6.56231
C         -4.06266       -4.08233       -7.43147
F         -4.81290       -5.16485       -7.77772
F         -4.88740       -3.21125       -6.78916
F         -3.64896       -3.48966       -8.57442
C         -2.31341       -7.97148       -5.46667
C         -1.53123       -9.27785       -5.66228
C         -2.23593      -10.20980       -6.65672
C         -1.46519      -11.51861       -6.90173
N         -2.11532      -12.37187       -7.87663
C         -3.10899      -13.29042       -7.59976
C         -3.56612      -13.80306       -8.79865
C         -2.83278      -13.16853       -9.84022
C         -1.95036      -12.28705       -9.24543
C          4.34163       -0.62725       -1.79827
C          5.42163       -1.22716       -0.89685
H          1.52719        2.21793       -0.36366
H          0.93316        1.11078       -1.62297
H          2.51091        1.90010       -1.80672
H          1.82467       -0.15938        0.40068
H          3.37112        0.63712        0.21822
H          0.33829       -1.08389       -0.91391
H          0.96580       -2.43467        0.03528
H         -1.40274       -1.50468       -2.42291
H         -2.69906       -2.96137       -3.88457
H          1.29160       -4.71137       -1.43542
H          0.96051       -6.94940       -2.50683
H         -0.26496       -8.26890       -3.97032
H         -3.93467       -4.46124       -4.66017
H         -3.97758       -6.00693       -5.48343
H         -2.24770       -5.14841       -7.16178
H         -2.29519       -3.57037       -6.36516
H         -2.49432       -7.52067       -6.45454
H         -3.31588       -8.20684       -5.06891
H         -1.41851       -9.81287       -4.70057
H         -0.51471       -9.05930       -6.03723
H         -2.36578       -9.69305       -7.62090
H         -3.24695      -10.45280       -6.29383
H         -1.35913      -12.08403       -5.96274
H         -0.44748      -11.29928       -7.26086
H         -3.39312      -13.51047       -6.57545
H         -4.33070      -14.56478       -8.91207
H         -2.92621      -13.35030      -10.90595
H         -1.20792      -11.62204       -9.67553
H          4.51264        0.44800       -1.95200
H          4.35262       -1.11401       -2.78083
H          5.41981       -0.77098        0.10304
H          6.41308       -1.05910       -1.33852
H          5.27665       -2.30958       -0.78705
