116

C          0.32617       -0.47405       -0.28074
C          1.85632       -0.50259       -0.32561
C          2.48606       -1.28336        0.83345
C          4.01720       -1.32012        0.79224
C          4.64675       -2.11292        1.94226
C          6.17744       -2.15775        1.89290
C          6.80871       -2.96907        3.02898
C          8.33817       -3.03227        2.96157
C          8.97315       -3.85861        4.08469
C         10.50036       -3.94465        3.99338
C         11.13952       -4.78704        5.10213
C         12.66430       -4.89158        4.99051
C         13.30378       -5.75858        6.08016
C         14.82510       -5.88780        5.94773
C         15.45846       -6.78873        7.01314
C         16.97549       -6.94755        6.86251
C         17.59054       -7.89791        7.89536
C         19.09869       -8.10796        7.72034
C         19.67165       -9.14352        8.69779
C         21.15952       -9.42323        8.45110
C         21.82271      -10.53471        9.32464
C         21.91515      -10.07107       10.79319
C         22.15878      -11.10526       11.90345
C         21.78775      -10.48054       13.25611
S         22.44671      -11.35598       14.69186
C         24.02937      -10.52201       14.92306
S         24.60210       -9.35704       13.86110
N         24.67893      -10.92563       16.03193
C         24.17992      -11.97907       16.93150
C         24.68791      -13.37439       16.55837
C         25.97845      -10.33783       16.40106
C         25.85204       -9.16015       17.36565
N         20.96487      -11.75688        9.22910
C         21.22054      -12.57540        8.24423
S         22.61724      -12.24502        7.35983
C         23.15943      -10.97205        8.63130
C         24.32082      -11.62403        9.39591
C         25.25147      -10.67316       10.17545
C         26.61880      -11.35684       10.31906
S         27.76615      -10.56543       11.46841
C         27.56599      -11.54199       12.92406
S         26.65409      -12.89822       13.09738
N         28.36286      -11.02405       13.95755
C         28.68673       -9.68202       14.19064
N         29.39416       -9.54096       15.28108
C         29.57053      -10.82270       15.78440
C         28.93063      -11.74783       15.00564
H         -0.09237        0.09267       -1.12414
H         -0.03763       -0.00614        0.64631
H         -0.09364       -1.49041       -0.32277
H          2.24462        0.53017       -0.31980
H          2.18872       -0.94302       -1.28117
H          2.09622       -2.31693        0.82957
H          2.15636       -0.84216        1.79086
H          4.40760       -0.28710        0.80379
H          4.34460       -1.75377       -0.16929
H          4.25230       -3.14458        1.93087
H          4.32441       -1.67903        2.90539
H          6.57410       -1.12722        1.91580
H          6.49716       -2.58061        0.92386
H          6.40160       -3.99567        3.01232
H          6.50219       -2.54022        3.99946
H          8.74783       -2.00696        2.98612
H          8.64096       -3.45275        1.98612
H          8.55011       -4.87871        4.06938
H          8.68784       -3.42969        5.06146
H         10.92588       -2.92594        4.01682
H         10.78140       -4.36453        3.01129
H         10.70371       -5.80174        5.08445
H         10.87218       -4.36224        6.08576
H         13.10396       -3.87915        5.02310
H         12.92797       -5.30174        3.99952
H         12.85059       -6.76548        6.05473
H         13.05622       -5.34233        7.07249
H         15.28416       -4.88478        5.99494
H         15.06956       -6.28379        4.94618
H         14.98467       -7.78565        6.97132
H         15.22949       -6.38851        8.01632
H         17.45952       -5.95838        6.93718
H         17.20265       -7.31935        5.84783
H         17.08115       -8.87614        7.82993
H         17.38738       -7.51915        8.91210
H         19.62797       -7.14846        7.84697
H         19.30357       -8.43513        6.68613
H         19.08822      -10.07393        8.58148
H         19.50168       -8.79653        9.72971
H         21.75019       -8.50807        8.61847
H         21.29284       -9.68280        7.38804
H         20.96623       -9.55337       11.00740
H         22.68570       -9.28793       10.85208
H         23.21103      -11.41121       11.93873
H         21.56997      -12.02423       11.74774
H         20.69823      -10.45588       13.40685
H         22.18586       -9.45547       13.32249
H         23.08103      -11.94745       16.94167
H         24.50438      -11.70858       17.94637
H         24.33726      -13.67104       15.56186
H         24.32150      -14.10947       17.28740
H         25.78515      -13.41286       16.55628
H         26.45688      -10.01005       15.47422
H         26.58587      -11.14282       16.83711
H         25.27243       -8.34656       16.91101
H         26.85518       -8.77855       17.59780
H         25.37186       -9.44984       18.31074
H         20.13829      -11.86556        9.81507
H         20.56633      -13.41672        8.00936
H         23.53072      -10.11662        8.04871
H         24.93385      -12.13231        8.63185
H         23.95214      -12.42640       10.05252
H         24.85253      -10.43558       11.17238
H         25.36378       -9.71745        9.63973
H         27.15211      -11.38872        9.35792
H         26.50502      -12.38746       10.69721
H         28.30934       -8.88628       13.55541
H         30.15864      -10.99857       16.68000
H         28.83691      -12.82528       15.05477
