53

C          2.67114       -1.53288        2.11858
C          2.88619       -0.45162        1.05651
C          3.82765        0.66284        1.53545
C          4.01002        1.74056        0.47812
O          4.82875        2.84776        1.00312
C          6.14547        2.75562        0.83841
O          6.76638        1.87714        0.27439
C          6.82672        4.00658        1.46476
O          6.65723        5.16796        0.69335
C          7.21147        5.05073       -0.60845
C          7.06299        6.37458       -1.33807
C          7.62717        6.33882       -2.76253
C          7.47743        7.67037       -3.50708
C          8.24063        7.67894       -4.83799
N          9.68418        7.50068       -4.60751
N          8.63287        4.69838       -0.44489
C          9.13484        4.08261        0.62784
N         10.43849        3.83974        0.73307
N          8.27785        3.72920        1.64431
C          8.70743        2.93794        2.74391
O          9.86952        2.62687        2.94521
O          7.65900        2.61615        3.49193
C          7.91531        1.73465        4.65329
C          7.76983        0.28136        4.25315
H          1.99270       -2.31515        1.75448
H          2.23128       -1.11171        3.03441
H          3.61920       -2.01780        2.39469
H          1.91494       -0.01321        0.77347
H          3.29581       -0.90787        0.14033
H          4.81047        0.23368        1.79056
H          3.42538        1.12524        2.45122
H          3.06038        2.22290        0.21593
H          4.49491        1.35332       -0.42780
H          6.39606        4.22153        2.44695
H          6.71279        4.23500       -1.16436
H          7.55090        7.15926       -0.73807
H          5.98681        6.60356       -1.35463
H          7.13451        5.53801       -3.33995
H          8.70733        6.10413       -2.76617
H          7.85317        8.49169       -2.87229
H          6.41374        7.88694       -3.69372
H          7.98962        8.60360       -5.38864
H          7.89579        6.83985       -5.46251
H         10.10455        8.38035       -4.30263
H         10.15599        7.24945       -5.47595
H          9.26867        4.99443       -1.18151
H         11.07158        4.06362       -0.02465
H         10.74515        3.31792        1.56434
H          7.15327        2.05051        5.37454
H          8.91399        1.96959        5.04020
H          6.77347        0.08079        3.83748
H          7.89833       -0.34644        5.14574
H          8.53185       -0.01415        3.52064
