59

C          9.12200       -7.15379        0.99465
C          8.07853       -6.65085       -0.00498
C          8.60044       -6.63741       -1.44510
C          7.57959       -6.16973       -2.48862
N          7.13445       -4.78204       -2.30018
C          7.81783       -3.72698       -2.79050
O          8.85680       -3.80132       -3.44458
C          7.16033       -2.34291       -2.53032
N          8.19429       -1.32269       -2.51378
N          8.85087       -1.13535       -1.31136
C          9.98601       -0.58137       -1.63893
N         10.08833       -0.39530       -2.99110
C          8.94705       -0.87895       -3.56357
N          8.61567       -0.78024       -4.86728
C          9.55391       -1.12011       -5.99698
C         11.03154       -1.14604       -5.62195
O         11.47490        0.15626       -5.16650
C          9.17563       -2.47412       -6.61235
C          7.20294       -0.51413       -5.21840
C          7.00014        0.67449       -6.16705
O          7.38349        0.35213       -7.48768
Si         6.85325        1.19989       -8.86367
C          7.10354        3.04194       -8.59180
C          7.93539        0.53381      -10.23793
C          5.03986        0.81175       -9.16018
H          8.72996       -7.15001        2.02005
H         10.02252       -6.52248        0.97895
H          9.43401       -8.18146        0.75972
H          7.76132       -5.63483        0.28521
H          7.17747       -7.28524        0.05082
H          8.91613       -7.65378       -1.73214
H          9.49855       -6.00341       -1.51763
H          6.67984       -6.80138       -2.46231
H          8.01057       -6.23439       -3.49623
H          6.34080       -4.60970       -1.69185
H          6.64479       -2.29067       -1.56357
H          6.43410       -2.14112       -3.32692
H         10.75168       -0.28779       -0.92809
H         10.83240        0.05487       -3.56536
H          9.40538       -0.32805       -6.74204
H         11.57844       -1.42386       -6.53292
H         11.23884       -1.91405       -4.85663
H         12.42346        0.24815       -5.34696
H          9.26616       -3.28287       -5.87575
H          9.83423       -2.68858       -7.46479
H          8.15141       -2.45267       -7.00095
H          6.67923       -0.26140       -4.28735
H          6.72816       -1.40743       -5.65482
H          7.56653        1.54597       -5.78884
H          5.92433        0.92974       -6.10724
H          8.15209        3.27946       -8.36264
H          6.47841        3.43061       -7.77520
H          6.83042        3.59970       -9.49951
H          8.99621        0.75890      -10.06009
H          7.65759        0.98360      -11.20181
H          7.82779       -0.55534      -10.33750
H          4.40019        1.12901       -8.32404
H          4.88370       -0.26438       -9.31988
H          4.67919        1.33601      -10.05736
