49

C          1.63104        0.52132        0.62107
C          2.15978       -0.85357        0.20991
N          2.36126       -0.99665       -1.24034
C          1.43443       -1.40321       -2.13772
O          1.65515       -1.52041       -3.34784
C         -0.00945       -1.69975       -1.61821
C         -0.58950       -2.81508       -2.41442
N         -1.12393       -2.70248       -3.61167
C         -1.32042       -1.44788       -4.35153
C         -2.75935       -0.92390       -4.24721
O         -3.02022       -0.82224       -2.84112
C         -2.89194        0.41089       -4.97375
C         -1.66306       -3.95939       -4.16497
C         -0.94261       -5.13180       -3.47561
S         -0.48939       -4.41902       -1.81543
C          0.27115       -5.66993       -4.19437
C          1.34979       -4.85470       -4.57222
C          2.40889       -5.43970       -5.26807
N          2.46476       -6.74014       -5.59490
C          1.43411       -7.51037       -5.22472
C          0.32200       -7.02764       -4.52721
C          3.69357       -0.62508       -1.76694
C          4.65950       -1.80784       -1.81646
H          1.57369        0.59258        1.71562
H          0.62747        0.70777        0.21509
H          2.29301        1.32281        0.26651
H          1.50367       -1.65534        0.57526
H          3.13605       -1.04124        0.67836
H         -0.61741       -0.79149       -1.73630
H         -0.03227       -1.97286       -0.55755
H         -1.05571       -1.64190       -5.39975
H         -0.60601       -0.71150       -3.96975
H         -3.45278       -1.65756       -4.70323
H         -3.89420       -0.42116       -2.71270
H         -2.21909        1.16159       -4.53668
H         -3.92223        0.78478       -4.89857
H         -2.65878        0.30823       -6.04301
H         -1.49343       -3.97856       -5.24940
H         -2.74687       -3.98794       -3.97083
H         -1.65309       -5.94349       -3.27863
H          1.39364       -3.78975       -4.33152
H          3.26092       -4.82915       -5.57888
H          1.49743       -8.56736       -5.49647
H         -0.48929       -7.70538       -4.25408
H          4.08151        0.17530       -1.12136
H          3.54633       -0.20830       -2.77041
H          4.81909       -2.24711       -0.82173
H          5.63535       -1.47513       -2.19447
H          4.28324       -2.59009       -2.48793
