111

C         19.87969       -2.02119      -12.93026
C         18.84632       -2.99500      -12.35930
C         18.26705       -2.54855      -11.01233
C         17.27682       -3.54991      -10.40966
C         16.69862       -3.11288       -9.05949
C         15.79521       -4.17061       -8.41792
C         15.23627       -3.76674       -7.04887
C         14.44016       -4.89058       -6.37771
C         13.90359       -4.53886       -4.98613
C         13.22580       -5.73247       -4.30164
C         12.74107       -5.44325       -2.87487
C         12.04415       -6.62105       -2.19252
N         12.87359       -7.88992       -2.23976
C         14.16747       -7.79584       -1.46114
C         15.08304       -8.96641       -1.81072
C         14.41805      -10.33861       -1.60293
C         13.02708      -10.36076       -2.26810
C         12.09753       -9.18692       -1.92331
C         11.50748       -9.19356       -0.50117
C         10.04792       -8.69358       -0.38968
P          9.76720       -7.80447        1.17482
O         10.24976       -8.50854        2.38492
O         10.51716       -6.42002        0.80335
C         10.65654       -5.38682        1.82852
C         11.55335       -4.29974        1.27388
O          8.22295       -7.37861        1.17511
C          7.26457       -7.98628        2.10591
C          6.42446       -9.03300        1.40113
C         14.41098      -10.73667       -0.10494
O         13.55685      -11.82110        0.19683
C         14.08721      -13.11572       -0.13652
C         13.13386      -14.17541        0.38932
C         13.60170      -15.60213        0.08091
C         12.63888      -16.67357        0.60411
C         13.08869      -18.10603        0.30044
C         12.11926      -19.17251        0.82044
C         12.56689      -20.60849        0.52947
C         11.58834      -21.67098        1.04016
C         12.03976      -23.10974        0.76668
C         11.04746      -24.16285        1.26639
H         20.27105       -2.37018      -13.89565
H         20.73551       -1.90191      -12.24907
H         19.44448       -1.02353      -13.09040
H         19.30603       -3.99139      -12.24209
H         18.02354       -3.12735      -13.08217
H         17.77305       -1.56848      -11.13425
H         19.09361       -2.38177      -10.29895
H         17.78083       -4.52539      -10.28808
H         16.45156       -3.72542      -11.12198
H         16.13614       -2.17158       -9.18601
H         17.52737       -2.87861       -8.36822
H         16.36672       -5.10979       -8.30948
H         14.95950       -4.40521       -9.10019
H         14.59969       -2.87170       -7.15564
H         16.06986       -3.46905       -6.38879
H         15.08694       -5.78336       -6.29791
H         13.59942       -5.18598       -7.02949
H         13.18843       -3.70268       -5.05712
H         14.73182       -4.18049       -4.35078
H         13.96279       -6.56081       -4.30311
H         12.37696       -6.07760       -4.91841
H         12.00429       -4.62527       -2.89192
H         13.57173       -5.06953       -2.25589
H         11.10967       -6.86624       -2.71685
H         11.80342       -6.41432       -1.14170
H         13.15645       -7.98985       -3.22717
H         13.89892       -7.75803       -0.39850
H         14.63287       -6.83947       -1.72297
H         15.99678       -8.87660       -1.20373
H         15.40820       -8.86119       -2.85965
H         15.02849      -11.08185       -2.13835
H         12.50043      -11.28703       -2.00177
H         13.16505      -10.38312       -3.36277
H         11.27273       -9.17795       -2.65268
H         12.15184       -8.62195        0.18205
H         11.56298      -10.22196       -0.12299
H          9.34316       -9.53613       -0.41403
H          9.75689       -8.01880       -1.20663
H         11.08015       -5.84621        2.73376
H          9.65415       -4.99883        2.06423
H         12.55174       -4.69272        1.03362
H         11.67712       -3.50289        2.01962
H         11.11967       -3.85190        0.36897
H          6.65185       -7.14773        2.46150
H          7.82220       -8.40536        2.95462
H          5.91680       -8.61012        0.52420
H          5.65690       -9.41404        2.08914
H          7.03500       -9.88855        1.07954
H         14.06201       -9.90450        0.52629
H         15.45130      -10.95736        0.20202
H         15.09053      -13.22317        0.31847
H         14.20783      -13.21780       -1.23307
H         12.13751      -14.00494       -0.05149
H         13.02182      -14.03895        1.47654
H         14.60118      -15.76575        0.51990
H         13.72552      -15.72524       -1.00949
H         11.63766      -16.50559        0.16972
H         12.51812      -16.55181        1.69460
H         14.08781      -18.27553        0.73896
H         13.21401      -18.22687       -0.79018
H         11.12196      -19.00474        0.37646
H         11.98821      -19.04550        1.90952
H         13.55965      -20.77915        0.98202
H         12.70694      -20.73445       -0.55874
H         10.59841      -21.50645        0.57844
H         11.43809      -21.53749        2.12621
H         13.02275      -23.27608        1.23930
H         12.20145      -23.24000       -0.31691
H         10.88501      -24.07669        2.35123
H         11.40476      -25.18203        1.06469
H         10.06784      -24.05219        0.77747
