121

C          0.84593       -0.20173        0.83236
C          2.36484       -0.20865        0.64178
C          2.80536        0.22415       -0.76123
C          4.32454        0.21217       -0.95928
C          4.77002        0.63952       -2.36169
C          6.29057        0.62840       -2.55063
C          6.74514        1.06094       -3.94855
C          8.26761        1.06527       -4.12097
C          8.73558        1.50675       -5.51185
C         10.26058        1.53161       -5.65876
C         10.74997        1.98468       -7.03874
C         12.27773        2.03201       -7.14826
C         12.79747        2.49703       -8.51316
C         14.32690        2.57595       -8.57206
C         14.88117        3.05358       -9.91931
C         16.40760        3.18759       -9.91430
C         16.99842        3.69112      -11.23864
C         18.52039        3.88913      -11.14088
C         19.23529        4.45830      -12.37421
C         18.87036        5.92272      -12.64976
O         19.56620        6.45566      -13.75940
C         19.19815        5.78879      -14.96798
C         19.56478        4.31025      -14.86563
N         18.95246        3.64461      -13.64697
C         19.38417        2.19429      -13.52690
C         18.91439        1.30808      -14.67462
C         19.29893       -0.15581      -14.40987
C         18.88624       -1.10274      -15.54208
C         19.34631       -2.54199      -15.28748
C         18.94915       -3.48893      -16.40930
O         19.46590       -4.79185      -16.06575
C         19.21365       -5.77767      -16.98491
O         18.59592       -5.58346      -18.01388
C         19.79903       -7.06161      -16.52969
C         19.68481       -8.16907      -17.27098
C         19.92766        6.43945      -16.13826
C         19.54812        7.90949      -16.35466
C         20.28424        8.47770      -17.57062
S         19.77827       10.15543      -18.02524
C         18.33168        9.84930      -19.05215
S         17.72051        8.31572      -19.31762
N         17.80588       10.97954      -19.58348
C         18.39931       12.31189      -19.38321
C         17.78492       13.11506      -18.23294
C         16.59478       10.90717      -20.42328
C         15.28379       10.88918      -19.63368
H          0.56423       -0.51693        1.84663
H          0.35113       -0.88271        0.12374
H          0.42746        0.80283        0.66916
H          2.75754       -1.21874        0.84858
H          2.83327        0.45447        1.38889
H          2.41732        1.23744       -0.96811
H          2.33359       -0.43631       -1.51042
H          4.71088       -0.80066       -0.74766
H          4.79436        0.87467       -0.21078
H          4.38351        1.65191       -2.57481
H          4.30357       -0.02411       -3.11114
H          6.67648       -0.38455       -2.33910
H          6.75489        1.28923       -1.79723
H          6.35110        2.06988       -4.16402
H          6.29248        0.39384       -4.70332
H          8.66158        0.05583       -3.90762
H          8.71621        1.72872       -3.36042
H          8.33141        2.51079       -5.73114
H          8.30365        0.83499       -6.27453
H         10.66389        0.52667       -5.44187
H         10.68675        2.19795       -4.88792
H         10.33640        2.98367       -7.26337
H         10.34516        1.30919       -7.81282
H         12.68996        1.03243       -6.92396
H         12.67398        2.70198       -6.36488
H         12.37141        3.48804       -8.74896
H         12.43110        1.81463       -9.30006
H         14.75310        1.58571       -8.33381
H         14.68215        3.25468       -7.77687
H         14.43064        4.02844      -10.17538
H         14.56998        2.35525      -10.71611
H         16.86400        2.21550       -9.65901
H         16.70625        3.88090       -9.10931
H         16.50332        4.63586      -11.51589
H         16.74282        2.96425      -12.03391
H         18.99973        2.94993      -10.82688
H         18.73547        4.59680      -10.32399
H         20.32655        4.39191      -12.24498
H         19.15913        6.51912      -11.77425
H         17.77677        6.03440      -12.78959
H         18.10055        5.88886      -15.11421
H         20.65290        4.19123      -14.76653
H         19.21975        3.76059      -15.74868
H         17.92776        3.64550      -13.77087
H         18.97690        1.82621      -12.57820
H         20.48003        2.21089      -13.44253
H         19.35944        1.62549      -15.62931
H         17.81887        1.39010      -14.78607
H         18.84197       -0.49155      -13.46368
H         20.39054       -0.22064      -14.26354
H         19.31160       -0.74145      -16.49403
H         17.79020       -1.07424      -15.66511
H         18.92219       -2.91140      -14.33984
H         20.44194       -2.56815      -15.17222
H         19.36792       -3.17795      -17.37963
H         17.85599       -3.55225      -16.53014
H         20.32199       -7.05340      -15.57248
H         19.15558       -8.14333      -18.22492
H         20.11208       -9.11739      -16.94733
H         19.68979        5.87090      -17.05276
H         21.01371        6.34173      -15.97020
H         19.78152        8.50122      -15.45866
H         18.46531        7.98227      -16.53586
H         20.12160        7.84825      -18.45854
H         21.36583        8.56620      -17.38598
H         18.28521       12.85591      -20.33230
H         19.48018       12.18617      -19.22827
H         16.73154       13.35584      -18.42283
H         18.32902       14.06189      -18.11337
H         17.84914       12.56274      -17.28640
H         16.67581        9.99819      -21.03414
H         16.63035       11.77754      -21.09337
H         15.24925       10.02268      -18.96155
H         14.43991       10.80967      -20.33269
H         15.14750       11.80215      -19.04062
