77

F          3.17108        1.02663        2.77311
C          3.57589        1.63530        1.56002
C          4.82813        0.95599        1.02965
C          4.65704       -0.55952        0.82325
N          4.62654       -1.33603        2.06581
C          5.69740       -1.86328        2.68989
N          6.93870       -1.69967        2.18458
C          8.06415       -2.63029        2.38404
C          7.89109       -3.96540        1.64611
C          7.67247       -3.80260        0.13781
C          7.55733       -5.12649       -0.62558
C          7.20878       -4.92385       -2.10419
C          7.12285       -6.22306       -2.91075
C          6.71847       -6.00154       -4.37322
C          6.67779       -7.29183       -5.19531
N          5.53472       -2.55307        3.82777
C          4.27182       -2.96495        4.45359
C          4.53580       -3.32659        5.91511
C          3.36857       -4.05070        6.59057
S          3.05270       -5.73076        5.96929
C          4.21632       -6.69207        6.96090
S          5.31230       -6.02659        8.01181
N          4.05974       -8.03299        6.75509
C          4.73716       -9.00703        7.58345
C          4.39837       -9.12562        8.93520
C          5.01529      -10.10369        9.71425
C          5.96212      -10.96238        9.14621
C          6.28844      -10.84287        7.79320
C          5.67520       -9.86570        7.00572
C          3.17524       -8.56857        5.74578
C          3.54756       -8.52221        4.39660
C          2.70735       -9.08018        3.43178
C          1.50820       -9.68899        3.81227
C          1.14657       -9.74124        5.16222
C          1.97884       -9.18329        6.13282
H          3.74824        2.69970        1.77120
H          2.73114        1.53544        0.86058
H          5.67785        1.15682        1.70094
H          5.07010        1.41942        0.05958
H          5.44756       -0.96553        0.17577
H          3.71298       -0.76680        0.29847
H          3.79101       -1.21641        2.63243
H          7.00538       -1.10365        1.36882
H          8.23382       -2.78100        3.46115
H          8.95374       -2.09857        2.02007
H          7.05182       -4.52814        2.08799
H          8.79483       -4.56546        1.83739
H          8.49733       -3.20566       -0.29068
H          6.74910       -3.22263       -0.04029
H          6.78697       -5.75832       -0.14980
H          8.50507       -5.68435       -0.53825
H          7.95883       -4.25900       -2.56779
H          6.24508       -4.38741       -2.17625
H          6.39964       -6.90671       -2.43187
H          8.09726       -6.74067       -2.87453
H          7.42186       -5.29065       -4.83911
H          5.73003       -5.51166       -4.40429
H          7.66341       -7.77933       -5.22299
H          6.37502       -7.09705       -6.23291
H          5.96393       -8.01414       -4.77175
H          6.37934       -2.87338        4.29020
H          3.85042       -3.82772        3.91049
H          3.54397       -2.13891        4.40617
H          4.76475       -2.41045        6.48299
H          5.42177       -3.97841        5.99242
H          2.41463       -3.52005        6.45047
H          3.57081       -4.14129        7.66670
H          3.66307       -8.44854        9.36979
H          4.75131      -10.19716       10.76821
H          6.44205      -11.72664        9.75769
H          7.02364      -11.51297        7.34664
H          5.92125       -9.76967        5.94804
H          4.49303       -8.05567        4.11760
H          2.99630       -9.05208        2.38062
H          0.85855      -10.13164        3.05654
H          0.21364      -10.22024        5.46114
H          1.71281       -9.22216        7.18910
