86

C          4.36457       -1.73437       -0.17275
O          3.54968       -1.86729        1.00367
C          4.00154       -2.63998        2.02103
C          5.29715       -3.16116        2.14768
C          5.63319       -3.93087        3.26342
C          4.69972       -4.20268        4.26680
C          3.40443       -3.69787        4.15189
C          3.07252       -2.92288        3.04448
N          1.71681       -2.43361        2.86164
N          1.05483       -3.10705        1.91065
C         -0.16579       -2.69501        1.57398
C         -0.78892       -1.62171        2.24756
C         -0.08743       -0.97218        3.24401
C          1.22512       -1.36921        3.54778
C          2.06632       -0.62459        4.53350
C          2.70774        0.63083        3.90786
O          3.30938        1.32810        4.97294
C          3.79722        2.62123        4.60985
C          4.24730        3.30058        5.89633
O          4.60406        4.62797        5.53465
C          5.00362        5.48526        6.53339
C          5.30309        6.79395        6.12535
C          5.71324        7.73254        7.06031
C          5.85374        7.41378        8.42734
C          5.53185        6.10523        8.80756
C          5.11337        5.14050        7.88363
C          6.36454        8.46408        9.41929
C          7.84117        8.88698        9.10334
C          9.03296        7.89288        8.94461
C          9.20967        6.93936       10.14181
C          8.94336        7.05441        7.65235
C         10.29481        8.77916        8.84514
C          5.50719        9.74863        9.27592
C          6.20814        8.01109       10.88523
C         -0.78479       -3.40745        0.39668
C         -0.12846       -2.91811       -0.88869
C         -0.64134       -1.80749       -1.57230
C         -0.00936       -1.33222       -2.72466
C          1.14266       -1.96308       -3.20196
C          1.65840       -3.07216       -2.52402
C          1.02974       -3.54482       -1.37030
H          5.28661       -1.17338        0.04128
H          3.74918       -1.18062       -0.88812
H          4.60933       -2.72238       -0.58947
H          6.04287       -2.96617        1.37897
H          6.64581       -4.32654        3.34470
H          4.97102       -4.81392        5.12599
H          2.64613       -3.91663        4.90477
H         -1.80179       -1.31970        1.98051
H         -0.51978       -0.13825        3.79661
H          2.85543       -1.25506        4.95608
H          1.42007       -0.29274        5.35885
H          1.93369        1.25259        3.41336
H          3.44537        0.34002        3.13409
H          2.99675        3.21857        4.13562
H          4.63669        2.53959        3.89554
H          5.10371        2.76274        6.33952
H          3.41780        3.29599        6.62521
H          5.20756        7.05218        5.07042
H          5.94995        8.73728        6.70934
H          5.61366        5.80556        9.85141
H          4.87983        4.13591        8.23427
H          8.11738        9.60175        9.89774
H          7.81628        9.48258        8.17476
H          8.41127        6.18642       10.18752
H          9.22924        7.48126       11.09841
H         10.16182        6.39568       10.04966
H          8.13220        6.31717        7.68636
H          9.88499        6.50631        7.49799
H          8.78098        7.69167        6.77070
H         10.44147        9.37132        9.76047
H         10.22496        9.48015        7.99985
H         11.19271        8.16204        8.69516
H          5.58033       10.19061        8.27358
H          5.84083       10.50920        9.99638
H          4.44823        9.53133        9.47435
H          6.74761        7.08871       11.12450
H          5.14784        7.85900       11.13473
H          6.59511        8.79373       11.55228
H         -1.86627       -3.21870        0.37808
H         -0.62912       -4.48823        0.51370
H         -1.54977       -1.31754       -1.21410
H         -0.42435       -0.47496       -3.25565
H          1.62912       -1.60116       -4.10820
H          2.54515       -3.58148       -2.90409
H          1.43432       -4.41108       -0.84419
