64

C          6.53426       -1.08473        3.68890
C          6.13389       -0.87314        2.22794
C          6.58906       -2.01071        1.30842
C          6.21973       -1.78977       -0.16112
C          6.67293       -2.93094       -1.07947
C          6.29392       -2.67782       -2.54188
C          6.72747       -3.73915       -3.56779
C          6.18485       -5.16934       -3.28155
N          7.32825       -6.02801       -3.64244
C          8.46683       -5.31241       -3.66256
N          9.68443       -5.81759       -3.85330
C         10.00617       -7.24523       -4.02717
C         11.32100       -7.41845       -4.78427
C         12.55119       -6.83564       -4.07912
C         13.85754       -7.18532       -4.81134
N         14.05170       -8.63753       -4.84851
N          8.19759       -4.00231       -3.48179
C          6.41757       -3.28750       -5.01346
C          4.93424       -3.10952       -5.33340
O          4.02201       -3.51421       -4.63615
O          4.80212       -2.47802       -6.51000
C          3.43853       -2.23919       -7.00167
C          2.99790       -0.81971       -6.68349
C          1.62315       -0.50063       -7.28410
C          1.17689        0.93355       -6.99412
H          6.20170       -0.25010        4.32012
H          7.62616       -1.16645        3.79465
H          6.09170       -2.00594        4.09530
H          6.55719        0.07772        1.86308
H          5.03889       -0.76554        2.15529
H          6.14768       -2.96039        1.65890
H          7.68321       -2.13305        1.39650
H          6.66453       -0.84189       -0.51073
H          5.12718       -1.66343       -0.25014
H          6.21933       -3.87020       -0.72030
H          7.76402       -3.06252       -0.98727
H          6.72143       -1.71209       -2.86384
H          5.20297       -2.57044       -2.63360
H          5.30295       -5.39700       -3.88711
H          5.93477       -5.29791       -2.21904
H          7.32641       -7.02826       -3.47733
H         10.47268       -5.17896       -3.79949
H          9.18782       -7.71090       -4.59647
H         10.06371       -7.73250       -3.03891
H         11.22012       -6.98179       -5.79158
H         11.48998       -8.49577       -4.92636
H         12.60387       -7.21872       -3.04503
H         12.49846       -5.73442       -4.00243
H         14.68807       -6.63102       -4.33610
H         13.79363       -6.82552       -5.85018
H         14.42000       -8.97669       -3.95901
H         14.73209       -8.89732       -5.56139
H          8.86141       -3.28829       -3.76628
H          6.81515       -4.02313       -5.73266
H          6.93373       -2.33925       -5.22783
H          2.77042       -2.98587       -6.55385
H          3.51038       -2.40742       -8.08406
H          3.74810       -0.11404       -7.07530
H          2.96632       -0.68551       -5.59012
H          0.87729       -1.20802       -6.88654
H          1.65282       -0.66550       -8.37374
H          1.10837        1.11902       -5.91255
H          0.19093        1.13829       -7.43166
H          1.88568        1.66245       -7.41327
