54

C          1.62726       -1.37179        1.88292
C          3.09356       -0.93728        1.83277
C          3.80852       -1.10186        3.17954
C          5.28098       -0.66686        3.13717
C          5.93632       -0.84543        4.49566
O          7.38103       -0.51558        4.44980
C          7.72926        0.74112        4.66225
O          6.96713        1.66981        4.90339
C          9.25659        0.87673        4.56346
C          9.75257        2.24803        4.87577
N          8.97481        3.32073        5.12010
C          9.79476        4.39785        5.36681
N         11.05532        4.01721        5.28005
N         11.01237        2.68604        4.96820
C         12.27232        1.93416        4.84349
C         12.94337        1.70162        6.20139
C         12.11845        0.85488        7.17192
C          9.32487        5.77098        5.69452
C          8.41681        5.81141        6.94437
C          8.05713        7.23336        7.40185
C          7.18064        7.98845        6.39576
S          6.72483        9.60547        7.08251
O          5.83150        9.41125        8.19968
O          7.91158       10.42125        7.18913
Cl         5.59290       10.35233        5.50015
H          1.13618       -1.22980        0.91116
H          1.06239       -0.79270        2.62823
H          1.53406       -2.43492        2.14868
H          3.15840        0.11668        1.51447
H          3.62766       -1.52093        1.06466
H          3.74500       -2.15628        3.49906
H          3.27428       -0.51676        3.94788
H          5.34661        0.38936        2.83102
H          5.82824       -1.26085        2.38817
H          5.93526       -1.89335        4.81862
H          5.47227       -0.21829        5.26745
H          9.55845        0.58554        3.54395
H          9.71816        0.13914        5.23664
H          7.94688        3.19291        5.12246
H         12.91453        2.52282        4.17614
H         12.03309        0.98651        4.34188
H         13.18628        2.67825        6.64507
H         13.90505        1.21061        5.99040
H         11.16374        1.33586        7.43386
H         12.66442        0.70550        8.11143
H         11.90243       -0.14223        6.75952
H          8.79880        6.17889        4.81581
H         10.22143        6.38786        5.84563
H          8.93463        5.30701        7.77444
H          7.49203        5.23959        6.75918
H          8.97614        7.80719        7.59444
H          7.52220        7.16003        8.35956
H          6.23027        7.47540        6.19187
H          7.68932        8.21463        5.44908
