95

C          0.56693       -0.22719        0.96847
C          2.05403       -0.30576        0.61413
C          2.71260       -1.62447        1.03464
C          4.20170       -1.70411        0.68537
C          4.86444       -3.02411        1.09209
C          6.35192       -3.09395        0.73270
C          7.02361       -4.41378        1.12429
C          8.50420       -4.47954        0.73614
C          9.19013       -5.78920        1.13731
C         10.66477       -5.84922        0.72523
C         11.36312       -7.14975        1.13488
C         12.83270       -7.19784        0.70193
C         13.54340       -8.49025        1.13299
C         14.99183       -8.49407        0.66372
N         15.77793       -9.69456        1.15349
C         17.26346       -9.65009        0.74107
O         17.30933      -10.38713       -0.42244
C         16.53517      -11.59449       -0.17581
C         15.29208      -11.04635        0.60033
C         14.71540      -11.91203        1.71956
C         14.31554      -13.27550        1.14937
O         13.92662      -13.42069        0.00637
O         14.50536      -14.23285        2.06186
C         14.40100      -15.63455        1.62331
C         15.54928      -16.39405        2.26472
C         15.64912      -17.83961        1.76402
C         16.74088      -18.62993        2.49375
C         17.03033      -19.99955        1.87168
C         18.15023      -20.75743        2.58798
C         17.35262      -12.70023        0.48720
C         18.50500      -13.20542       -0.40463
C         19.04285      -14.52834        0.09269
C         18.50011      -15.73282       -0.38159
C         18.96279      -16.96046        0.09544
C         19.97185      -17.00121        1.06139
C         20.51690      -15.80900        1.54469
C         20.05560      -14.58189        1.06076
H          0.12796        0.73041        0.65600
H          0.40808       -0.32733        2.05278
H         -0.00384       -1.02959        0.47689
H          2.59099        0.53385        1.08769
H          2.18167       -0.16864       -0.47321
H          2.17927       -2.46577        0.55679
H          2.58306       -1.76642        2.12250
H          4.73416       -0.86594        1.16914
H          4.32964       -1.55312       -0.40126
H          4.33271       -3.86324        0.60938
H          4.74236       -3.17593        2.17915
H          6.88366       -2.25728        1.21989
H          6.47151       -2.93332       -0.35353
H          6.48493       -5.25307        0.64982
H          6.92265       -4.56777        2.21315
H          9.04058       -3.63196        1.19807
H          8.60040       -4.33741       -0.35476
H          8.64962       -6.63961        0.68597
H          9.10956       -5.92483        2.23012
H         11.20253       -4.99251        1.16781
H         10.74273       -5.72284       -0.36873
H         10.82549       -8.00979        0.69940
H         11.29948       -7.27160        2.23026
H         13.36855       -6.32941        1.12121
H         12.89462       -7.09726       -0.39493
H         12.99978       -9.35740        0.72535
H         13.50868       -8.57789        2.23344
H         15.52455       -7.61068        1.04481
H         15.07704       -8.50151       -0.43191
H         15.71366       -9.71668        2.17973
H         17.83204      -10.08541        1.58265
H         17.57362       -8.61671        0.54955
H         16.20871      -11.93455       -1.16682
H         14.50808      -10.81454       -0.12879
H         13.81336      -11.44033        2.14043
H         15.43055      -12.05962        2.54160
H         14.43652      -15.65162        0.52573
H         13.41724      -16.00023        1.94936
H         15.43125      -16.37761        3.35994
H         16.49321      -15.87191        2.03776
H         15.86295      -17.83101        0.68137
H         14.67913      -18.35226        1.88053
H         16.45350      -18.75902        3.55141
H         17.66889      -18.03430        2.50334
H         17.29645      -19.86506        0.80895
H         16.10994      -20.60737        1.87375
H         19.09300      -20.18959        2.56742
H         18.34018      -21.73304        2.12085
H         17.89959      -20.93804        3.64363
H         16.68349      -13.54974        0.68035
H         17.74189      -12.39804        1.47371
H         19.30540      -12.45285       -0.44987
H         18.12965      -13.32815       -1.43319
H         17.71820      -15.70850       -1.14481
H         18.54129      -17.88817       -0.29336
H         20.33924      -17.96032        1.42828
H         21.31263      -15.83452        2.29012
H         20.50013      -13.65435        1.43008
