68

C          1.81500        4.04847        3.71235
C          3.19240        3.61181        3.20341
C          3.45241        2.13655        3.45451
O          4.76984        1.81374        2.94126
C          5.14912        0.48616        3.20348
N          6.51603        0.33406        2.71076
N          6.92196       -0.84683        2.13709
C          8.19971       -0.69314        1.89732
N          8.62776        0.57211        2.31509
C          7.53679        1.20270        2.82243
N          7.48056        2.42529        3.38557
C          9.97655        1.14928        2.18644
C         10.17736        1.90019        0.87186
C          9.09078       -1.70658        1.27107
C          8.46918       -3.10772        1.22375
C          9.44980       -4.10454        0.59225
S          9.14972       -5.81693        1.08310
C          9.94734       -5.86509        2.69905
S         10.79564       -4.56517        3.33127
N          9.79846       -7.05233        3.32811
C          9.09664       -8.19637        2.71198
C          9.94483       -9.03914        1.74537
C         11.14194       -9.75872        2.37592
C         11.89704      -10.63036        1.36929
C         10.36448       -7.25363        4.67904
C          9.50989       -6.67666        5.81629
C          8.08148       -7.22415        5.91260
C          7.31600       -6.65673        7.11132
H          1.65442        5.11630        3.51987
H          1.71178        3.88757        4.79496
H          1.00670        3.49768        3.21132
H          3.97947        4.20119        3.70146
H          3.27981        3.80816        2.12384
H          2.70633        1.50471        2.94034
H          3.41692        1.90163        4.53433
H          4.54414       -0.25918        2.66089
H          5.12113        0.26466        4.28864
H          8.24020        3.07608        3.22383
H          6.54005        2.81571        3.45719
H         10.68462        0.31734        2.28508
H         10.14379        1.79552        3.06026
H         10.04760        1.23290        0.01060
H         11.19551        2.30780        0.83425
H          9.47268        2.73573        0.76514
H         10.02803       -1.76870        1.85095
H          9.37135       -1.36022        0.26048
H          7.51819       -3.09789        0.67434
H          8.24952       -3.41942        2.25312
H         10.48652       -3.87971        0.88635
H          9.38307       -4.11309       -0.50555
H          8.20359       -7.81378        2.19398
H          8.73353       -8.82320        3.53696
H         10.29000       -8.40589        0.91327
H          9.26332       -9.78199        1.29723
H         10.79590      -10.38356        3.21722
H         11.83607       -9.01816        2.80511
H         11.24377      -11.40451        0.94086
H         12.74868      -11.13767        1.84130
H         12.28873      -10.02860        0.53632
H         11.36093       -6.79195        4.69547
H         10.48536       -8.33724        4.80723
H          9.48506       -5.58035        5.72084
H         10.05148       -6.89107        6.75314
H          8.10760       -8.32500        5.98360
H          7.53187       -6.98690        4.98642
H          7.81062       -6.91568        8.05915
H          6.28988       -7.04612        7.15518
H          7.25561       -5.55905        7.06055
