92

C          3.95016       16.08279        4.41982
C          5.42600       15.81889        4.72775
C          5.72737       14.34886        5.03814
C          7.20040       14.07343        5.35514
C          7.49179       12.60377        5.67241
C          8.95990       12.32129        6.00600
C          9.23610       10.84831        6.32064
C         10.69838       10.54791        6.66294
C         10.95766        9.06601        6.94943
C         12.42492        8.74872        7.25552
C         12.72095        7.26964        7.55630
C         12.28181        6.25741        6.48692
C         12.89348        6.45998        5.06886
C         14.38753        6.57390        5.07313
C         14.99569        7.81406        4.91955
C         16.38190        7.95217        5.04119
C         17.11629        9.25355        5.03664
C         16.66950       10.17371        6.20014
C         16.86186        9.56403        7.59238
C         16.43418       10.51889        8.71204
C         16.62195        9.94847       10.12206
C         16.23487       10.94333       11.22196
C         16.42476       10.40797       12.64518
C         16.07567       11.43610       13.72709
C         16.26074       10.92053       15.15803
C         15.94224       11.96870       16.23086
C         16.11833       11.45036       17.66048
N         17.06829        6.81190        5.23526
N         16.57683        5.58365        5.33018
C         15.25559        5.45232        5.27473
C         14.77319        4.04943        5.49495
C         14.63689        3.76321        6.99961
O         15.08012        4.47819        7.87369
O         13.97521        2.61159        7.18486
C         13.82308        2.18955        8.56924
H          3.76634       17.14441        4.20542
H          3.30855       15.79982        5.26766
H          3.61433       15.50475        3.54594
H          5.74155       16.44111        5.58244
H          6.04523       16.14385        3.87433
H          5.41485       13.72463        4.18210
H          5.10466       14.02248        5.88995
H          7.51301       14.69976        6.20929
H          7.82458       14.39440        4.50231
H          7.18642       11.97821        4.81488
H          6.85943       12.28184        6.51846
H          9.26563       12.94268        6.86600
H          9.59581       12.64138        5.16141
H          8.93132       10.22953        5.45775
H          8.59445       10.52832        7.15999
H         11.00521       11.15054        7.53540
H         11.34373       10.87640        5.82768
H         10.61384        8.47811        6.08037
H         10.33077        8.73785        7.79640
H         12.75285        9.34431        8.12323
H         13.04654        9.10796        6.41606
H         12.21136        6.99078        8.49215
H         13.79594        7.14097        7.76500
H         11.19072        6.28511        6.35413
H         12.50940        5.24423        6.84488
H         12.47740        7.37096        4.61694
H         12.58213        5.61881        4.43102
H         14.39403        8.70478        4.74259
H         16.93099        9.75574        4.07403
H         18.20034        9.06632        5.09549
H         15.61320       10.45461        6.05720
H         17.24391       11.10809        6.11212
H         17.92176        9.28547        7.73112
H         16.28459        8.62579        7.68021
H         15.37481       10.79409        8.56606
H         17.00535       11.45886        8.62166
H         17.67519        9.64636       10.25741
H         16.02552        9.02525       10.22956
H         15.18234       11.24793       11.08424
H         16.83175       11.86405       11.09953
H         17.47160       10.08214       12.77631
H         15.80722        9.50303       12.78384
H         15.03097       11.76770       13.59178
H         16.69738       12.33726       13.58268
H         17.29983       10.57020       15.28957
H         15.62208       10.03300       15.31401
H         14.90745       12.32567       16.09291
H         16.58724       12.85026       16.07644
H         15.45566       10.59520       17.86076
H         15.88796       12.22805       18.40133
H         17.15097       11.11642       17.84082
H         18.08607        6.84995        5.32942
H         15.51430        3.34405        5.09280
H         13.81924        3.84638        4.99393
H         13.23825        1.26768        8.52209
H         13.29643        2.96051        9.14376
H         14.80747        2.00499        9.01513
