69

C          4.04409        2.38505       -3.66686
C          4.56716        3.50572       -2.76458
C          5.38625        2.99659       -1.57257
C          5.90644        4.11713       -0.66599
C          6.73157        3.61427        0.52367
C          7.26993        4.74689        1.40590
C          8.08374        4.24262        2.60726
C          8.62017        5.40381        3.42911
O          9.30613        4.93965        4.65532
C         10.58885        4.63033        4.56221
O         11.25709        4.71251        3.53074
C         11.12640        4.13016        5.90004
C         12.62789        4.02471        6.02543
N         13.37915        4.09783        4.88174
C         14.70926        4.01915        4.86748
C         15.44440        3.84921        6.05090
C         14.69862        3.75381        7.28970
C         13.28249        3.84420        7.22079
C         15.39876        3.57876        8.52101
C         14.71402        3.52991        9.86862
C         14.80427        4.86011       10.65014
C         14.15552        6.07099       10.00171
Br        12.17958        5.94037        9.93384
C         16.78282        3.48604        8.45546
C         17.50393        3.58566        7.24855
C         16.87533        3.77950        6.03068
C         17.67242        3.95286        4.76473
C         17.79901        5.42347        4.27042
C         18.44636        6.33187        5.32193
C         18.57170        5.45586        2.94675
H          3.47314        2.78638       -4.51520
H          3.38093        1.70276       -3.11431
H          4.86883        1.78326       -4.07719
H          3.71929        4.10513       -2.39197
H          5.18701        4.19848       -3.35892
H          6.23891        2.40143       -1.94487
H          4.76968        2.29987       -0.97748
H          5.05307        4.70979       -0.29257
H          6.51860        4.81445       -1.26475
H          7.57634        3.00726        0.15392
H          6.11446        2.93467        1.13688
H          6.42744        5.36219        1.76551
H          7.89727        5.41654        0.79259
H          8.92163        3.62153        2.25356
H          7.45229        3.60677        3.24801
H          7.81370        6.03355        3.82319
H          9.32668        6.02094        2.85940
H         10.67388        3.13679        6.06511
H         10.73211        4.76623        6.70521
H         12.80372        4.28774        4.02198
H         15.17945        4.09501        3.88915
H         12.68738        3.80183        8.13095
H         15.19835        2.75104       10.47486
H         13.66224        3.22740        9.78070
H         15.86796        5.11824       10.79537
H         14.38399        4.71026       11.65502
H         14.46810        6.22857        8.96333
H         14.34055        6.98312       10.57651
H         17.34246        3.33254        9.38102
H         18.59212        3.51300        7.27782
H         17.25038        3.33773        3.95348
H         18.68578        3.55944        4.93852
H         16.78025        5.80847        4.07970
H         19.46274        5.98822        5.56955
H         17.86744        6.36627        6.25531
H         18.52880        7.36022        4.94556
H         19.60155        5.09232        3.08234
H         18.63205        6.47960        2.55364
H         18.09505        4.82897        2.17946
