71

N          1.88306        1.86217       -1.39895
C          2.92653        1.12932       -0.67808
C          3.41881       -0.05584       -1.51339
C          4.57067       -0.81462       -0.84812
C          5.08742       -1.97860       -1.70011
C          6.23978       -2.71191       -1.00962
N          6.79054       -3.81103       -1.82383
C          7.83871       -3.67380       -2.71918
C          8.03285       -4.88856       -3.30356
N          7.09365       -5.74810       -2.76319
C          6.32619       -5.08006       -1.86715
C          5.21037       -5.65193       -1.06916
C          5.68689       -6.59550        0.06150
C          4.51299       -7.39052        0.67309
S          4.86318       -9.15311        0.89458
C          4.59014       -9.80907       -0.75304
S          3.91432       -8.90516       -1.99636
N          4.93872      -11.10835       -0.87586
C          5.63361      -11.90400        0.14509
C          6.96401      -12.40559       -0.42996
O          6.77809      -13.13933       -1.63297
C          6.11473      -12.35465       -2.62138
C          4.75698      -11.85844       -2.12677
C          6.98718       -7.16986       -3.11625
O          6.86328       -7.23515       -4.50561
C          6.82433       -8.60387       -4.97407
C          6.67040       -8.59109       -6.48355
C          6.61673      -10.00495       -7.07599
C          6.47460      -10.00763       -8.60303
C          6.39862      -11.41468       -9.19993
H          1.66152        2.73718       -0.92427
H          1.01628        1.32324       -1.43165
H          2.61781        0.76476        0.32405
H          3.76506        1.82460       -0.51121
H          3.72741        0.32073       -2.50163
H          2.57769       -0.74804       -1.69542
H          4.24588       -1.19423        0.13639
H          5.40064       -0.11539       -0.64633
H          5.43161       -1.60734       -2.67876
H          4.26998       -2.68895       -1.90731
H          5.92877       -3.13245       -0.04389
H          7.07490       -2.02835       -0.80534
H          8.35177       -2.73031       -2.85933
H          8.73296       -5.21462       -4.06196
H          4.55709       -6.23351       -1.74041
H          4.59985       -4.83420       -0.66529
H          6.21496       -6.02347        0.83831
H          6.42041       -7.30301       -0.34716
H          3.60852       -7.32222        0.05162
H          4.26644       -7.04510        1.68631
H          4.99235      -12.75530        0.42408
H          5.81801      -11.30391        1.04328
H          7.44862      -13.08759        0.28093
H          7.63480      -11.54045       -0.60550
H          5.98627      -13.00296       -3.49804
H          6.74520      -11.48867       -2.90879
H          4.09562      -12.71483       -1.91892
H          4.27611      -11.19985       -2.85862
H          6.11123       -7.59970       -2.59612
H          7.90651       -7.67830       -2.76169
H          5.97858       -9.12513       -4.48872
H          7.76036       -9.11397       -4.67317
H          7.50985       -8.03024       -6.92466
H          5.75143       -8.04071       -6.74026
H          5.77194      -10.56007       -6.63153
H          7.52932      -10.55992       -6.79588
H          7.32508       -9.46285       -9.04569
H          5.57243       -9.43828       -8.88279
H          7.29962      -11.99995       -8.96385
H          6.30602      -11.37913      -10.29370
H          5.53132      -11.96920       -8.81194
