75

C         -1.97496       -0.85227       -1.86702
N         -0.78930       -0.43641       -1.09509
C          0.20174       -1.31993       -0.81277
C          1.30494       -0.90892       -0.09479
C          1.44972        0.41594        0.35842
C          0.40221        1.33079        0.04467
C         -0.68729        0.85327       -0.66959
C          0.39107        2.80871        0.40366
C          0.77259        3.20015        1.82063
C          1.84770        4.08229        2.00318
C          2.24946        4.48392        3.27669
C          1.56307        4.00347        4.39267
C          0.47633        3.14495        4.21943
C          0.05714        2.73204        2.94625
C         -1.13715        1.81772        2.82028
C          2.68722        0.79047        1.11609
C          3.70497        1.59788        0.27589
C          4.90467        2.03958        1.11911
C          5.86649        2.96280        0.36552
C          7.09098        3.36010        1.19715
C          8.02012        4.35291        0.49207
C          9.28383        4.67788        1.29581
C         10.16143        5.75645        0.65244
C         11.46199        6.01993        1.41811
C         12.30785        7.14949        0.82078
C         13.62813        7.37439        1.56311
C         14.44524        8.53175        0.97440
N         15.72519        8.73254        1.64312
C         15.92122        9.46518        2.79229
C         17.25041        9.33624        3.17112
C         17.87737        8.49047        2.22223
C         16.91167        8.12866        1.29310
H         -1.92492       -1.92969       -2.04811
H         -1.99573       -0.32215       -2.82731
H         -2.88368       -0.62248       -1.29805
H          0.06630       -2.33789       -1.17257
H          2.08049       -1.64239        0.12463
H         -1.52833        1.49745       -0.92457
H         -0.61220        3.20117        0.16907
H          1.07597        3.32322       -0.28914
H          2.38419        4.45510        1.12795
H          3.08912        5.16947        3.39393
H          1.86208        4.30621        5.39657
H         -0.07186        2.78940        5.09409
H         -1.67101        1.74498        3.77511
H         -0.84861        0.79522        2.53017
H         -1.85568        2.17891        2.06840
H          3.17117       -0.12622        1.48286
H          2.41364        1.38726        1.99778
H          3.21576        2.48448       -0.15634
H          4.03951        0.98771       -0.57879
H          5.44841        1.14759        1.47513
H          4.53735        2.55380        2.02340
H          5.32493        3.87294        0.05149
H          6.19959        2.47289       -0.56579
H          7.65733        2.45076        1.46425
H          6.75535        3.79548        2.15472
H          7.46555        5.28562        0.28687
H          8.30870        3.95131       -0.49531
H          9.87511        3.75518        1.43064
H          8.99760        5.00269        2.31167
H          9.58430        6.69499        0.57551
H         10.40193        5.46469       -0.38510
H         12.06056        5.09266        1.44791
H         11.22618        6.25983        2.46979
H         11.71883        8.08369        0.82208
H         12.51728        6.92655       -0.24037
H         14.23918        6.45754        1.53214
H         13.43356        7.58012        2.62850
H         13.87788        9.47301        1.03578
H         14.64947        8.35286       -0.09203
H         15.10485       10.02211        3.24129
H         17.71342        9.81371        4.02853
H         18.91884        8.18635        2.20369
H         16.97493        7.50074        0.40999
