58

C          1.81182       -1.33946        0.63637
C          2.75897       -0.45874       -0.15273
O          3.15457        0.64404        0.68132
C          4.10684        1.48701        0.04945
C          4.47761        2.62334        0.97090
C          4.36521        3.93581        0.54420
C          4.74812        5.03491        1.34543
C          5.25683        4.85648        2.61655
C          5.37866        3.51565        3.10135
C          4.98515        2.39508        2.28139
C          5.12551        1.09603        2.83839
C          5.62700        0.91988        4.09882
N          6.00617        2.00036        4.85895
C          5.88746        3.24671        4.38291
C          6.61348        1.76060        6.19477
C          8.07090        1.30583        6.08958
C          8.69103        1.09221        7.47418
C         10.09397        0.47636        7.40204
N         10.61539        0.25767        8.75026
C          5.66785        6.04281        3.45835
O          5.44792        7.22300        2.73369
C          5.83048        8.41124        3.44428
C          5.53082        9.61111        2.56205
C          5.90784       10.94489        3.21852
C          5.58933       12.14905        2.32801
H          1.49608       -2.19415        0.02356
H          0.91459       -0.78204        0.93482
H          2.29604       -1.73001        1.54195
H          2.27407       -0.06976       -1.06737
H          3.65939       -1.02076       -0.46826
H          3.70358        1.90198       -0.89289
H          5.01586        0.90740       -0.22087
H          3.96787        4.13312       -0.45335
H          4.64345        6.04910        0.96390
H          4.79359        0.22803        2.27250
H          5.74421       -0.05465        4.56742
H          6.21133        4.03792        5.05693
H          5.99510        1.00656        6.70133
H          6.52534        2.69651        6.76140
H          8.64392        2.05448        5.51897
H          8.11842        0.36761        5.51247
H          8.05811        0.42851        8.08409
H          8.74010        2.05446        8.01250
H         10.73909        1.10879        6.75708
H         10.02616       -0.50539        6.90638
H         10.92587        1.13272        9.17448
H         11.42419       -0.36229        8.73322
H          6.74014        5.95042        3.74017
H          5.08747        6.05161        4.40741
H          6.90863        8.35927        3.69287
H          5.26844        8.46830        4.39683
H          4.45690        9.60591        2.31441
H          6.07453        9.49432        1.61063
H          6.98301       10.94263        3.46409
H          5.37559       11.04622        4.17908
H          6.13050       12.09372        1.37218
H          5.87186       13.09109        2.81571
H          4.51516       12.20241        2.09821
