60

C          7.64377       13.16398        0.79785
C          6.90318       11.82792        0.89186
C          7.34083       10.81414       -0.17163
C          6.63475        9.45892       -0.05747
C          7.10430        8.44246       -1.10251
C          6.50531        7.04471       -0.91038
C          6.91204        6.03214       -1.97779
O          8.34506        5.94306       -2.18977
C          9.09551        5.42685       -1.07738
C         10.59736        5.47519       -1.39668
C         11.21143        6.90711       -1.33225
C         12.73389        6.86572       -1.08871
C         13.31666        8.19079       -0.58140
N         14.77566        8.10347       -0.52003
C         10.83696        7.74910       -2.57633
C         11.08309        7.01679       -3.89087
N         10.41096        5.66980       -3.84215
C         10.95109        4.77948       -2.72731
C         10.43111        3.35315       -2.91482
C         10.97670        2.64457       -4.16461
C         10.49770        1.19533       -4.28025
H          7.30625       13.86453        1.57363
H          7.48008       13.64642       -0.17738
H          8.72893       13.03011        0.92303
H          5.81746       11.99945        0.80361
H          7.05854       11.38994        1.89266
H          8.43324       10.66022       -0.09697
H          7.16425       11.23900       -1.17595
H          5.54398        9.59988       -0.14412
H          6.80579        9.04588        0.95231
H          8.20492        8.37859       -1.05710
H          6.86553        8.81133       -2.11560
H          5.40418        7.09833       -0.93597
H          6.75168        6.66481        0.09485
H          6.51767        6.32594       -2.96077
H          6.52469        5.02655       -1.73719
H          8.76907        4.39274       -0.86409
H          8.90623        6.02709       -0.17258
H         11.08230        4.88098       -0.60496
H         10.75268        7.40192       -0.45956
H         13.29065        6.58310       -1.99754
H         12.95441        6.08029       -0.34570
H         12.82805        8.44843        0.38109
H         13.07039        9.00548       -1.28079
H         15.07557        7.49242        0.24114
H         15.18675        9.01824       -0.33643
H         11.41941        8.68007       -2.59734
H          9.78053        8.04504       -2.52719
H         12.14948        6.83250       -4.08185
H         10.66864        7.56403       -4.74744
H         10.49624        5.18161       -4.74147
H          9.39564        5.79645       -3.59831
H         12.04508        4.78132       -2.85566
H          9.32849        3.34516       -2.92728
H         10.72738        2.78237       -2.02024
H         12.07857        2.67308       -4.14625
H         10.67338        3.18173       -5.08356
H         10.81903        0.60301       -3.41181
H         10.90503        0.71568       -5.17902
H          9.40146        1.13697       -4.33810
