65

C          0.94688       -0.41673       -0.23718
C          2.45198       -0.49022        0.00884
S          3.06463       -2.06717       -0.71090
C          4.72195       -2.07462       -0.21063
N          5.48310       -3.11861       -0.04301
N          6.76438       -2.64137        0.23888
C          6.70219       -1.35045        0.25900
O          5.42514       -0.88571       -0.03451
C          7.78405       -0.33547        0.57721
N          7.57957        0.19015        1.93127
C          6.51025        1.15525        2.09327
C          6.51675        2.28091        1.05276
N          6.53125        1.67310       -0.33376
C          7.75494        0.79010       -0.49505
C          6.44025        2.69253       -1.43986
C          5.02628        3.26614       -1.53885
C          4.80422        4.22226       -2.72290
C          4.97080        5.76860       -2.44946
C          6.35114        6.36530       -1.96799
C          7.65946        6.27859       -2.84783
C          7.72479        6.89551       -4.30212
C          7.43438        8.43322       -4.47927
F          8.17040        9.15692       -3.61863
F          7.75697        8.77914       -5.73375
F          6.13246        8.69899       -4.27810
F          8.99730        6.67483       -4.71998
F          6.87878        6.20527       -5.10547
F          8.63412        6.85277       -2.10303
F          7.97156        4.95174       -2.98821
F          6.13495        7.66529       -1.67743
F          6.66615        5.71962       -0.79117
F          4.58072        6.42992       -3.55925
F          4.09695        6.06285       -1.43840
F          5.57822        3.86744       -3.79290
F          3.49780        4.09374       -3.11104
C          9.13539       -1.11194        0.50941
C         10.46567       -0.41014        0.91557
N         10.69909        0.75290        0.04936
N         10.35428        0.09286        2.29146
N         11.61124       -1.32849        0.82605
H          0.55404        0.52803        0.16140
H          0.41939       -1.23946        0.26257
H          0.70965       -0.45445       -1.30891
H          2.68635       -0.48631        1.08176
H          2.96846        0.34961       -0.47816
H          8.49098        0.52448        2.28767
H          6.59863        1.60957        3.08918
H          5.52809        0.65162        2.07113
H          7.41811        2.90527        1.12322
H          5.62656        2.91631        1.13833
H          5.71120        1.04255       -0.40262
H          8.64928        1.41938       -0.37719
H          7.71781        0.38108       -1.51424
H          6.70728        2.17616       -2.36999
H          7.20341        3.45051       -1.23726
H          4.71913        3.78858       -0.62409
H          4.31095        2.44564       -1.70616
H          9.25653       -1.49897       -0.51346
H          9.01057       -2.00171        1.14139
H         11.57353        1.20014        0.33916
H         10.87555        0.42691       -0.90469
H         10.24036       -0.69468        2.93447
H         11.24025        0.53503        2.55132
H         11.75259       -1.67572       -0.12515
H         11.49374       -2.14639        1.42832
