93

C          1.68994        0.29575        0.08228
C          2.62433       -0.14106       -1.04834
C          3.67962       -1.15927       -0.60379
C          4.60974       -1.62744       -1.72807
C          5.52632       -2.78288       -1.31766
C          6.42219       -3.31282       -2.44256
C          7.18874       -4.57052       -2.02469
C          7.88811       -5.28895       -3.19489
N          8.08397       -6.72074       -2.91662
C          7.08767       -7.62254       -3.05117
S          7.14181       -9.21043       -2.56050
S          5.63973       -6.92419       -3.89783
C          4.34622       -8.09661       -3.43428
C          3.82056       -7.84075       -2.01295
C          2.36400       -8.26337       -1.78931
N          1.41012       -7.65645       -2.75620
C          1.20146       -6.34293       -2.78021
N          1.68034       -5.48812       -1.85368
C          1.75264       -4.08386       -2.21020
O          0.49713       -3.59986       -2.70500
C         -0.25017       -4.52044       -3.40285
N          0.49515       -5.70633       -3.76091
I         -2.09991       -5.07778       -2.19508
C          0.66469       -8.57053       -3.64854
C         -0.66833       -9.05729       -3.04966
C         -1.45080       -9.82806       -4.08728
C         -2.43680       -9.17921       -4.84506
C         -3.12674       -9.86331       -5.84826
C         -2.83425      -11.20491       -6.10652
C         -1.85717      -11.86155       -5.35324
C         -1.16939      -11.17673       -4.34937
C          9.38557       -7.11764       -2.35282
C         10.38949       -7.54310       -3.42934
C         11.73364       -7.96270       -2.82640
C         12.75502       -8.40556       -3.87953
C         14.10459       -8.81886       -3.28368
C         15.13420       -9.24699       -4.33428
C         16.47574       -9.68542       -3.73615
C         17.50828      -10.08898       -4.79171
H          0.94901        1.02672       -0.26783
H          2.25079        0.76187        0.90557
H          1.13835       -0.55959        0.50242
H          3.13183        0.74161       -1.47148
H          2.03085       -0.56838       -1.87613
H          3.17269       -2.03550       -0.15316
H          4.28194       -0.73139        0.21550
H          5.21610       -0.77635       -2.07978
H          4.00645       -1.93329       -2.60295
H          4.90507       -3.61936       -0.94221
H          6.14788       -2.47432       -0.46002
H          7.11538       -2.52369       -2.77686
H          5.79448       -3.55986       -3.31751
H          6.47267       -5.28065       -1.58168
H          7.92051       -4.33735       -1.23552
H          8.87586       -4.85679       -3.40306
H          7.30789       -5.17245       -4.12202
H          4.75417       -9.11435       -3.53856
H          3.57469       -7.93588       -4.20239
H          3.95341       -6.77589       -1.77486
H          4.44382       -8.39329       -1.29449
H          2.03854       -8.03962       -0.76009
H          2.24977       -9.34744       -1.91002
H          1.98094       -5.80944       -0.94174
H          2.51553       -3.93590       -2.99246
H          2.00289       -3.49092       -1.32490
H         -0.69727       -4.07022       -4.29216
H          0.08963       -6.27057       -4.50108
H          1.33282       -9.41530       -3.85992
H          0.49384       -8.09325       -4.62447
H         -1.24694       -8.18561       -2.70821
H         -0.46431       -9.67886       -2.16446
H         -2.68251       -8.13544       -4.63075
H         -3.89905       -9.35089       -6.42270
H         -3.37399      -11.74144       -6.88711
H         -1.63557      -12.91229       -5.54269
H         -0.41603      -11.70125       -3.75646
H          9.20547       -7.94292       -1.65113
H          9.76643       -6.25720       -1.78185
H         10.54048       -6.71580       -4.14326
H          9.95653       -8.37930       -4.00054
H         11.56811       -8.78517       -2.10929
H         12.15330       -7.12690       -2.23911
H         12.91061       -7.58704       -4.60428
H         12.33726       -9.24710       -4.45908
H         13.94880       -9.64413       -2.56663
H         14.51466       -7.98046       -2.69316
H         15.30507       -8.41329       -5.03825
H         14.71875      -10.07143       -4.94022
H         16.30541      -10.52800       -3.04478
H         16.88155       -8.86643       -3.11817
H         17.14509      -10.92499       -5.40787
H         18.45422      -10.40394       -4.33036
H         17.73306       -9.25285       -5.47068
