51

C          6.57362        3.68254       -8.77677
C          7.41395        4.12203       -7.57571
C          7.06907        3.36524       -6.28700
C          7.94992        3.76482       -5.09737
C          7.55755        3.05945       -3.80975
O          8.46035        3.46470       -2.76635
C          8.02773        3.06353       -1.46296
C          9.07278        3.48337       -0.42685
C          9.65498        4.91266       -0.61237
C          9.98409        5.61604        0.70719
C          8.70564        6.22191        1.28645
N          8.13677        7.20841        0.34123
C          8.14626        6.88781       -0.97848
N          7.57622        7.68799       -1.90770
C          6.19846        8.16937       -1.83721
C          5.33920        7.35117       -2.85682
N          5.29482        5.95705       -2.37348
N          4.08430        8.07758       -3.02304
N          6.07539        7.31693       -4.12422
N          8.73229        5.75906       -1.37889
I          8.20460        9.20930        0.90191
H          6.83277        4.25523       -9.67707
H          5.49861        3.82450       -8.59146
H          6.73173        2.61889       -9.00574
H          7.28509        5.20538       -7.40728
H          8.48357        3.97959       -7.80190
H          7.16521        2.28107       -6.46629
H          6.00500        3.53372       -6.04006
H          7.89404        4.85616       -4.93773
H          9.00479        3.53805       -5.32020
H          7.60309        1.96073       -3.92348
H          6.52324        3.32421       -3.51636
H          7.88191        1.96989       -1.42287
H          7.05037        3.53805       -1.24606
H          9.91951        2.78313       -0.43571
H          8.59810        3.39272        0.56320
H         10.56714        4.82968       -1.22210
H         10.72315        6.41547        0.54796
H         10.42487        4.89962        1.41348
H          8.88875        6.72896        2.23816
H          7.93789        5.45214        1.46952
H          7.76334        7.41044       -2.88205
H          6.15344        9.23184       -2.10920
H          5.80459        8.05847       -0.81811
H          4.79481        5.92012       -1.48347
H          4.74943        5.38396       -3.02258
H          3.59272        8.21173       -2.13722
H          3.45235        7.58479       -3.65639
H          5.88307        6.46801       -4.65531
H          5.81717        8.12190       -4.69623
H          8.42787        5.32731       -2.26184
