68

C          0.69359        0.00805        0.09767
C          2.22058        0.04554       -0.00029
C          2.82036       -1.22083       -0.62092
C          4.34835       -1.19205       -0.72505
C          4.94421       -2.45250       -1.35989
C          6.46999       -2.41045       -1.48948
C          7.06406       -3.65528       -2.15606
C          8.58405       -3.58246       -2.33245
C          9.17642       -4.80564       -3.03911
C         10.68901       -4.69220       -3.26184
C         11.24298       -5.91197       -4.01244
C         12.73446       -5.93506       -4.20006
C         13.51819       -4.77526       -4.16741
C         14.89496       -4.81737       -4.32964
C         15.55951       -6.03873       -4.54058
C         14.75655       -7.16745       -4.59005
N         13.40183       -7.11388       -4.42374
N         12.78963       -8.39944       -4.51270
C         12.48860       -9.00201       -3.21204
C         11.79933       -8.55824       -5.57854
C         17.05653       -6.09940       -4.71835
C         17.66981       -7.47859       -4.97172
C         19.19245       -7.41537       -5.13825
C         19.83386       -8.78538       -5.38575
C         21.35466       -8.71405       -5.54204
H          0.29531        0.92895        0.54504
H          0.35311       -0.83559        0.71639
H          0.23230       -0.10468       -0.89489
H          2.65131        0.19631        1.00414
H          2.53056        0.92159       -0.59503
H          2.38943       -1.37119       -1.62683
H          2.51036       -2.09920       -0.02742
H          4.78104       -1.04941        0.28093
H          4.65647       -0.30918       -1.31275
H          4.49933       -2.60046       -2.35981
H          4.65043       -3.33591       -0.76612
H          6.92005       -2.27987       -0.48970
H          6.75967       -1.51635       -2.06928
H          6.59117       -3.79894       -3.14351
H          6.80445       -4.54993       -1.56355
H          9.06418       -3.46052       -1.34598
H          8.83806       -2.67459       -2.90732
H          8.67459       -4.94331       -4.01293
H          8.95723       -5.71474       -2.45233
H         11.20148       -4.58778       -2.29120
H         10.89127       -3.76924       -3.82838
H         10.77022       -5.96290       -5.00976
H         10.92727       -6.82584       -3.49170
H         13.01766       -3.82456       -3.99731
H         15.46971       -3.88964       -4.29331
H         15.12705       -8.17243       -4.77307
H         13.36357       -8.91345       -2.55641
H         12.30320      -10.06918       -3.38745
H         11.60775       -8.57775       -2.69745
H         12.14546       -8.03292       -6.47675
H         10.78083       -8.21978       -5.32451
H         11.75561       -9.62981       -5.81302
H         17.51532       -5.64875       -3.82096
H         17.32114       -5.41814       -5.54560
H         17.22683       -7.92622       -5.87851
H         17.42777       -8.15759       -4.13542
H         19.63918       -6.95974       -4.23753
H         19.43994       -6.73891       -5.97476
H         19.38966       -9.23657       -6.28910
H         19.57942       -9.46121       -4.55180
H         21.64025       -8.07477       -6.39016
H         21.78445       -9.70878       -5.71793
H         21.83074       -8.30141       -4.64064
