68

C          1.62007        0.78413       -0.36882
C          3.11467        0.45532       -0.38674
C          3.55248       -0.41386        0.79733
C          5.05121       -0.73480        0.79362
C          5.47507       -1.59953        1.98762
C          6.96059       -1.94991        1.97359
C          7.91245       -0.74918        2.16275
N          8.99588       -1.28732        3.01323
C          8.55659       -2.43036        3.60987
N          9.22846       -3.05987        4.56777
C          8.78195       -4.30682        5.18976
C          9.40547       -4.40824        6.58595
C          9.23305       -5.75252        7.30114
C          7.95840       -5.96400        8.21031
C          6.49834       -5.92276        7.60921
C          6.01699       -6.93027        6.49282
C          6.04188       -8.49512        6.71730
C          5.21814       -9.09772        7.91681
F          3.95411       -8.64057        7.90351
F          5.20289      -10.43290        7.78400
F          5.78663       -8.78714        9.09336
F          5.52710       -9.02181        5.57500
F          7.32872       -8.90013        6.83895
F          4.74087       -6.57042        6.20614
F          6.77134       -6.69873        5.37295
F          5.64587       -6.03355        8.65232
F          6.32717       -4.67227        7.06193
F          8.10536       -7.13979        8.86204
F          7.97796       -4.95358        9.13107
F          9.32034       -6.79479        6.41631
F         10.27820       -5.88423        8.17853
N          7.35963       -2.80064        3.11783
C          9.93606       -0.34400        3.62540
C         11.37968       -0.85167        3.69274
O         11.68598       -1.96411        4.10851
O         12.23347        0.07940        3.29707
C         13.67327       -0.24091        3.39136
C         14.45175        1.03903        3.15787
C         15.96213        0.77628        3.18018
H          1.33745        1.40312       -1.23047
H          1.34232        1.33590        0.54134
H          1.00843       -0.12944       -0.40203
H          3.69871        1.39138       -0.38488
H          3.36976       -0.05919       -1.32840
H          2.97831       -1.35658        0.79225
H          3.29098        0.09497        1.74152
H          5.62007        0.21171        0.79186
H          5.31524       -1.25111       -0.14560
H          4.89302       -2.53625        1.98405
H          5.24099       -1.08919        2.93690
H          7.21146       -2.48062        1.03834
H          7.40053        0.07815        2.68587
H          8.31469       -0.37410        1.21442
H         10.23096       -2.78646        4.62805
H          9.08274       -5.17074        4.57663
H          7.68796       -4.29282        5.25293
H          9.03534       -3.60711        7.23963
H         10.49586       -4.28287        6.50132
H          7.03630       -3.76009        3.18938
H          9.62618       -0.08913        4.65639
H          9.91109        0.57712        3.03403
H         13.88492       -1.00608        2.62989
H         13.85850       -0.67762        4.38284
H         14.18206        1.77255        3.93294
H         14.15584        1.47150        2.19019
H         16.28660        0.35626        4.14294
H         16.51574        1.71020        3.02371
H         16.26311        0.07530        2.38856
