46

C         -0.72456        1.24954        1.08822
C          0.69051        1.21994        0.50772
C          1.77450        1.55075        1.53868
C          3.19240        1.51200        0.96102
C          4.27707        1.91491        1.96502
C          5.68916        1.84618        1.37309
C          6.77598        2.32704        2.34655
C          8.14570        2.22694        1.70303
O          9.19648        2.82766        2.57361
C          9.82599        2.03699        3.40777
O          9.66447        0.83157        3.58553
C         10.88693        2.75478        4.22863
S         11.49115        1.40065        5.31203
C         12.63259        0.66636        4.23988
N         13.13303        1.14461        3.12758
N         13.98182        0.19552        2.64538
C         13.96198       -0.81750        3.51598
O         13.10920       -0.57149        4.56771
S         14.80347       -2.30205        3.48921
C         15.74476       -2.12040        1.91576
C         16.54010       -3.40391        1.70103
Br        12.75778        2.61023        6.76654
H         -1.47724        1.01699        0.32299
H         -0.96528        2.23999        1.50151
H         -0.83771        0.51569        1.89965
H          0.76137        1.93380       -0.32995
H          0.89212        0.22527        0.07605
H          1.70322        0.84433        2.38401
H          1.57889        2.55149        1.96196
H          3.24604        2.18198        0.08526
H          3.40359        0.49749        0.58053
H          4.22042        1.26292        2.85354
H          4.08017        2.94004        2.32307
H          5.72813        2.45805        0.45577
H          5.90360        0.80972        1.06180
H          6.75159        1.72102        3.26602
H          6.58336        3.37277        2.63307
H          8.21771        2.82709        0.78835
H          8.43795        1.18968        1.49645
H         10.48863        3.52786        4.89981
H         11.71900        3.15246        3.63366
H         16.38884       -1.23927        2.01992
H         15.01517       -1.94090        1.11733
H         17.25183       -3.58754        2.51664
H         17.11467       -3.30502        0.77095
H         15.88549       -4.27928        1.60057
