102

C          0.62182        0.37991        0.13746
C          2.14955        0.28626        0.17396
C          2.71527       -0.80696       -0.73989
C          4.24367       -0.90866       -0.70520
C          4.81189       -2.00001       -1.61865
C          6.34074       -2.09892       -1.57913
C          6.91105       -3.18902       -2.49223
C          8.43944       -3.29254       -2.45213
C          9.00212       -4.38223       -3.37096
C         10.53036       -4.48581       -3.34232
C         11.08797       -5.57831       -4.26043
C         12.61702       -5.67309       -4.24339
C         13.17216       -6.76699       -5.16163
C         14.70241       -6.83658       -5.16695
C         15.26296       -7.94044       -6.07116
C         16.79506       -7.97809       -6.07831
C         17.36319       -9.10687       -6.94354
C         18.91651       -9.10684       -6.92051
C         19.47754      -10.24426       -7.69946
N         19.66040      -10.20910       -9.00140
C         19.99215      -11.47312       -9.67859
C         20.54250      -12.41893       -8.58693
S         19.86889      -11.74444       -6.98414
C         22.06939      -12.49735       -8.51725
C         22.59111      -13.45303       -7.44022
C         24.11658      -13.43556       -7.29499
C         24.61185      -14.36552       -6.18263
C         26.12132      -14.29198       -5.93228
C         26.58417      -15.22501       -4.80837
C         28.07600      -15.11645       -4.47950
C         28.51764      -16.05607       -3.35129
C         30.00129      -15.93069       -2.99757
C         18.74480      -11.98502      -10.40676
O         18.32850      -10.93537      -11.25176
C         17.17231      -11.26110      -12.05212
C         16.83379      -10.06341      -12.91405
H          0.24967        1.17217        0.80178
H          0.15570       -0.56504        0.45468
H          0.25899        0.60074       -0.87765
H          2.48271        0.10077        1.20932
H          2.58543        1.25862       -0.11214
H          2.38452       -0.62076       -1.77724
H          2.27756       -1.78056       -0.45599
H          4.57255       -1.09514        0.33252
H          4.68001        0.06582       -0.98758
H          4.48526       -1.81332       -2.65703
H          4.37596       -2.97496       -1.33740
H          6.66694       -2.28539       -0.54061
H          6.77618       -1.12359       -1.85990
H          6.58674       -3.00041       -3.53099
H          6.47307       -4.16380       -2.21357
H          8.76563       -3.48538       -1.41483
H          8.87925       -2.31826       -2.72940
H          8.66990       -4.19183       -4.40687
H          8.56533       -5.35685       -3.09002
H         10.86458       -4.67433       -2.30681
H         10.96752       -3.51242       -3.62667
H         10.74675       -5.39489       -5.29460
H         10.65842       -6.55337       -3.97039
H         12.96142       -5.85459       -3.21013
H         13.04580       -4.69876       -4.53686
H         12.81101       -6.59757       -6.19123
H         12.76192       -7.74504       -4.85449
H         15.06570       -6.99317       -4.13633
H         15.11059       -5.86179       -5.48643
H         14.89305       -7.79680       -7.10122
H         14.87324       -8.91860       -5.73987
H         17.16345       -8.09431       -5.04490
H         17.18547       -7.00967       -6.43537
H         17.01519       -9.00522       -7.98440
H         16.99775      -10.08056       -6.58063
H         19.27228       -9.16902       -5.88293
H         19.29642       -8.16277       -7.34182
H         19.36727       -9.41154       -9.56633
H         20.77426      -11.26274      -10.42369
H         20.10698      -13.42270       -8.69741
H         22.47890      -11.48464       -8.36163
H         22.42174      -12.82542       -9.51076
H         22.24722      -14.47723       -7.66353
H         22.14578      -13.18762       -6.46461
H         24.44781      -12.40374       -7.08524
H         24.58422      -13.71682       -8.25393
H         24.32990      -15.40520       -6.42414
H         24.08123      -14.11987       -5.24557
H         26.39795      -13.25247       -5.68224
H         26.66456      -14.53444       -6.86218
H         26.34494      -16.26805       -5.08058
H         25.99761      -15.01090       -3.89726
H         28.31345      -14.07460       -4.19992
H         28.67060      -15.32793       -5.38572
H         28.29342      -17.09704       -3.63990
H         27.90702      -15.85472       -2.45461
H         30.64029      -16.15791       -3.86379
H         30.28125      -16.62057       -2.18985
H         30.24835      -14.91178       -2.66382
H         17.95473      -12.25669       -9.67665
H         19.01054      -12.89635      -10.97729
H         16.33326      -11.52659      -11.38297
H         17.40445      -12.14598      -12.67173
H         16.58000       -9.18963      -12.29873
H         15.96747      -10.29368      -13.54823
H         17.67474       -9.79995      -13.56879
