102

C          1.23658       -0.03699       -0.68610
C          2.75238        0.15139       -0.59761
C          3.20643        0.96415        0.61912
N          2.77673        0.30408        1.89548
N          3.17677       -0.95387        2.04089
C          2.81985       -1.56413        3.16568
C          2.05964       -0.98353        4.20081
C          1.67616        0.36494        4.01621
C          2.06635        0.97030        2.82199
C          0.90705        1.11889        5.06874
C         -0.08700        2.15577        4.52760
C         -0.94746        2.83932        5.60044
C         -2.35660        2.20609        5.93320
C         -2.49031        0.74956        6.53376
C         -1.87424        0.34124        7.93325
C         -2.25742        1.08934        9.27319
C         -3.74775        1.14246        9.80129
C         -4.55423       -0.17725       10.13899
C         -3.96438       -1.18355       11.19681
F         -3.59146       -0.54564       12.31737
F         -4.91577       -2.08217       11.50042
F         -2.90301       -1.84423       10.69390
F         -5.74679        0.25102       10.62224
F         -4.77564       -0.86480        8.98887
F         -3.69150        1.88668       10.93392
F         -4.49153        1.81351        8.88433
F         -1.49952        0.50610       10.23934
F         -1.85687        2.37908        9.14458
F         -2.15463       -0.97671        8.08154
F         -0.51501        0.46146        7.83141
F         -3.80951        0.46583        6.56393
F         -1.90174       -0.10626        5.62890
F         -3.01610        3.05764        6.74903
F         -3.02874        2.14398        4.74242
F         -0.24812        3.00226        6.76519
F         -1.25954        4.09428        5.14240
C          1.66914       -1.75177        5.42723
C          2.09439       -3.21584        5.48448
O          1.48805       -3.74903        6.64114
C          1.81841       -5.11965        6.86956
C          0.91168       -5.62217        7.98398
O          1.34407       -6.94816        8.26126
C          0.64269       -7.68778        9.18197
C         -0.51177       -7.25133        9.84574
C         -1.13441       -8.09959       10.76030
C         -0.63645       -9.37958       11.05901
C          0.51341       -9.79253       10.36361
C          1.14819       -8.96798        9.44083
C         -1.33568      -10.25882       12.10173
C         -1.42774       -9.54534       13.49322
C         -0.20136       -9.06133       14.32614
C          0.74863      -10.20362       14.73774
C          0.61831       -7.96305       13.62001
C         -0.79943       -8.45458       15.61567
C         -2.79888      -10.48692       11.63537
C         -0.69547      -11.65596       12.21449
C          4.71698        1.18907        0.67628
O          4.97500        1.99681        1.82110
H          0.97281       -0.56997       -1.60772
H          0.70689        0.92662       -0.69997
H          0.84402       -0.63090        0.15187
H          3.11566        0.69167       -1.48463
H          3.26490       -0.82152       -0.58986
H          2.70782        1.94484        0.63250
H          3.17188       -2.59393        3.22850
H          1.83059        2.00267        2.57230
H          1.63323        1.61540        5.73461
H          0.38998        0.39077        5.69777
H         -0.75894        1.71133        3.78024
H          0.43862        2.98845        4.03852
H          0.57013       -1.71959        5.53370
H          2.05408       -1.23551        6.32363
H          3.19868       -3.31075        5.53562
H          1.75256       -3.76608        4.58298
H          2.87847       -5.22182        7.16534
H          1.65692       -5.71722        5.95360
H         -0.14064       -5.60446        7.65171
H          1.00818       -4.97741        8.87543
H         -0.92999       -6.26200        9.66439
H         -2.02576       -7.73179       11.27003
H          0.93818      -10.77787       10.54869
H          2.04333       -9.29763        8.91300
H         -2.00336      -10.22941       14.14071
H         -2.07752       -8.66393       13.35924
H          1.34875      -10.56798       13.89410
H          0.20142      -11.05758       15.16283
H          1.45358       -9.84701       15.50323
H          1.13464       -8.33580       12.72649
H          1.38335       -7.57032       14.30670
H         -0.01679       -7.11979       13.31171
H         -1.36662       -9.20486       16.18620
H         -1.48094       -7.62159       15.38671
H         -0.00353       -8.06764       16.26842
H         -3.36490       -9.54757       11.57586
H         -3.32401      -11.14933       12.33859
H         -2.81728      -10.95704       10.64233
H          0.37266      -11.63098       12.45562
H         -0.81703      -12.21932       11.27805
H         -1.19484      -12.22727       13.00886
H          5.01639        1.69071       -0.25969
H          5.23373        0.21496        0.73408
H          5.92416        2.18808        1.86801
