85

C         12.21316        6.35095        6.22179
C         12.00475        5.23804        5.19193
C         12.41975        5.63431        3.77031
C         12.22453        4.51723        2.74052
C         12.62564        4.90935        1.31443
C         12.45333        3.77507        0.29885
C         12.85689        4.15326       -1.13044
C         12.72221        2.99620       -2.12641
C         13.13111        3.36152       -3.55795
C         13.04998        2.18114       -4.53244
C         13.46189        2.53880       -5.96638
C         13.44289        1.33028       -6.91290
C         13.77373        1.65038       -8.37303
N         15.13514        2.19293       -8.49416
C         15.86848        2.24427       -9.62131
N         15.28513        1.99397      -10.79582
C         15.88702        1.45394      -12.00999
C         14.77283        0.65963      -12.70003
O         13.63591        0.63155      -12.25422
O         15.22102        0.04659      -13.78610
C         14.24877       -0.76345      -14.54678
C         13.50590        0.06725      -15.58013
C         12.52860       -0.80358      -16.38267
C         11.73506       -0.01406      -17.42955
C         10.75128       -0.88144      -18.22310
C          9.94028       -0.09047      -19.25238
N         17.19314        2.52545       -9.51665
C         17.97631        3.32216      -10.47673
C         17.50119        4.77886      -10.57543
C         18.24236        5.57309      -11.65450
C         17.88831        5.12394      -13.06970
O         17.07058        4.26563      -13.32715
O         18.54176        5.74787      -14.07792
H         11.90916        6.03106        7.22799
H         11.62610        7.24617        5.96748
H         13.26942        6.65450        6.27520
H         10.94393        4.93459        5.18726
H         12.57167        4.34219        5.49768
H         13.47950        5.94611        3.77461
H         11.84619        6.52539        3.45866
H         11.16776        4.19679        2.74599
H         12.80747        3.63199        3.05101
H         13.67762        5.24555        1.31069
H         12.02966        5.78212        0.99423
H         11.40196        3.43778        0.30311
H         13.04880        2.90393        0.62498
H         13.90081        4.51408       -1.13093
H         12.24303        5.00543       -1.47143
H         11.67983        2.63266       -2.12684
H         13.33677        2.14699       -1.77931
H         14.16254        3.75746       -3.55083
H         12.49322        4.18524       -3.92326
H         12.02189        1.78075       -4.54378
H         13.69004        1.36030       -4.16507
H         14.47253        2.99039       -5.92465
H         12.79567        3.32647       -6.35888
H         12.43853        0.87997       -6.90595
H         14.13156        0.55060       -6.54828
H         13.04502        2.37746       -8.77362
H         13.71155        0.73845       -8.98531
H         15.48160        2.71010       -7.69104
H         14.26956        1.83347      -10.80559
H         16.72859        0.78497      -11.78028
H         16.23908        2.25076      -12.68533
H         13.56199       -1.22923      -13.82762
H         14.87418       -1.53474      -15.01263
H         14.23281        0.54582      -16.25517
H         12.95188        0.87295      -15.07295
H         11.82476       -1.29563      -15.68931
H         13.08358       -1.61669      -16.88199
H         12.43534        0.47754      -18.12714
H         11.18288        0.80104      -16.92962
H         10.06550       -1.38602      -17.52155
H         11.30835       -1.68651      -18.73168
H          9.33088        0.68803      -18.76944
H          9.25838       -0.74453      -19.81230
H         10.59553        0.40767      -19.98219
H         17.54741        2.51321       -8.56523
H         17.94900        2.84494      -11.46207
H         19.01761        3.27060      -10.13083
H         17.63569        5.27569       -9.60294
H         16.42540        4.79310      -10.80567
H         19.33585        5.50857      -11.52076
H         17.99123        6.64255      -11.56723
H         19.15838        6.41906      -13.73376
