64

C          0.79683        1.86119        0.99202
C          2.31643        1.73034        0.86663
C          2.97423        1.18167        2.13909
C          4.49670        1.04904        2.01403
C          5.12915        0.56756        3.32156
N          6.60691        0.43981        3.21792
C          7.14842       -0.75209        2.81191
C          8.50743       -0.92664        2.69015
C          9.01491       -2.24084        2.16258
C          9.25099       -2.15935        0.63857
O          9.73103       -3.40488        0.11315
C          8.76523       -4.36010       -0.12057
O          7.59270       -4.17463        0.13659
C          9.36891       -5.61032       -0.70659
C         10.35569       -6.31815        0.24594
C         10.90712       -7.61169       -0.35737
C          9.37205        0.16807        3.02049
C          8.78197        1.41716        3.42878
C          7.38167        1.49044        3.49576
C          9.60373        2.53796        3.78648
C         10.97660        2.36488        3.72411
C         11.56376        1.14500        3.32145
C         10.78263        0.06368        2.97201
C          9.05059        3.88437        4.20739
C          8.27303        3.96338        5.54669
C          8.92286        3.21527        6.73055
S          7.79255        1.96873        7.37336
O          6.64940        2.61701        7.97908
O          7.60731        0.95211        6.35863
O          8.68891        1.29208        8.53783
H          0.35676        2.26096        0.06922
H          0.51895        2.53828        1.81277
H          0.32546        0.88734        1.18923
H          2.75471        2.71404        0.62851
H          2.56351        1.07289        0.01647
H          2.53808        0.19833        2.38405
H          2.73142        1.84324        2.98866
H          4.93670        2.02168        1.73683
H          4.75042        0.34636        1.20347
H          4.74527       -0.41828        3.61564
H          4.92732        1.25949        4.15004
H          6.43584       -1.54582        2.59453
H          8.27028       -3.02388        2.35299
H          9.94371       -2.54328        2.66454
H         10.03003       -1.42568        0.39440
H          8.31549       -1.88159        0.13186
H          9.89125       -5.33888       -1.63822
H          8.53532       -6.27581       -0.96619
H          9.84242       -6.53877        1.19588
H         11.18155       -5.63183        0.48512
H         10.10178       -8.32498       -0.58441
H         11.60046       -8.10397        0.33725
H         11.45298       -7.41626       -1.29174
H          6.85801        2.39289        3.79734
H         11.62756        3.19992        3.98820
H         12.65064        1.06231        3.28865
H         11.25197       -0.87060        2.66888
H          8.40011        4.28733        3.41372
H          9.90407        4.57419        4.26334
H          7.23967        3.61265        5.41660
H          8.17317        5.02428        5.80888
H          9.15290        3.87756        7.57357
H          9.83630        2.67346        6.45079
H          8.33469        1.58857        9.39907
