59

C          5.21786       -2.55071       -0.73484
C          5.05845       -1.02848       -0.73903
C          5.87868       -0.33535        0.35478
C          5.73691        1.19038        0.35922
C          6.53843        1.86432        1.47761
C          6.41338        3.39097        1.47208
C          7.17959        4.12210        2.60731
C          8.67314        3.96725        2.51031
C          9.42589        4.82938        1.66399
C         10.79792        4.66145        1.57540
N         11.40763        3.67254        2.26411
C         10.73890        2.83370        3.08108
C          9.35985        2.96083        3.23220
C          8.72500        2.07654        4.26933
C          9.25637        2.49198        5.66775
O         10.44059        2.83997        5.76574
N          8.41618        2.42966        6.72850
C          8.96939        2.76168        8.05814
C          8.83112        4.24564        8.39716
C          7.00907        2.00869        6.68037
C          6.81819        0.49584        6.80060
C          8.83534        5.98623        0.87176
C          9.24686        7.31904        1.43660
C         10.11195        8.20011        0.92379
Br        11.05121        7.92156       -0.69783
Br         8.44088        7.77668        3.11020
H          4.61466       -3.01986       -1.52319
H          4.90097       -2.98286        0.22588
H          6.26517       -2.84409       -0.90010
H          3.99450       -0.76736       -0.61307
H          5.35324       -0.62778       -1.72352
H          6.94384       -0.60277        0.23524
H          5.57685       -0.73281        1.34048
H          4.67200        1.46166        0.45905
H          6.06143        1.59280       -0.61630
H          7.59825        1.56862        1.38383
H          6.19496        1.47018        2.45062
H          5.35364        3.67548        1.56384
H          6.74927        3.77980        0.49616
H          6.82455        3.75773        3.57978
H          6.92767        5.19026        2.58250
H         11.43696        5.29974        0.96641
H         12.41737        3.56465        2.17618
H         11.32637        2.08202        3.59942
H          9.04299        1.03311        4.11941
H          7.63754        2.07772        4.19664
H         10.02527        2.46648        8.05932
H          8.44255        2.13804        8.79405
H          9.39668        4.85951        7.68458
H          9.22785        4.43875        9.40288
H          7.78116        4.57009        8.38395
H          6.53654        2.39280        5.76592
H          6.50175        2.52192        7.50902
H          7.26099       -0.03672        5.94804
H          5.74848        0.24995        6.83746
H          7.28397        0.11060        7.71740
H          7.74183        5.92441        0.83575
H          9.19215        5.93131       -0.16767
H         10.35082        9.15035        1.39469
