45

C          1.10367       -0.21838        3.56891
C          2.62465       -0.08920        3.43859
C          3.02014        0.90263        2.35840
O          4.46256        0.99396        2.31747
C          4.93120        1.85127        1.30137
C          6.44581        2.02856        1.39366
C          6.86728        3.25625        0.54361
N          8.28564        3.44370        0.32521
C          8.95673        2.23893       -0.12060
C          8.73077        1.02085        0.79436
N          7.20442        0.80348        0.86680
C          6.82401       -0.52693        1.52798
C          7.29829       -1.63409        0.72761
C          7.66820       -2.55352        0.03589
C          9.35802        1.15516        2.18434
C         10.87604        0.94725        2.12001
C         11.49580        1.07990        3.52702
F         10.91968        0.25500        4.42874
F         12.81724        0.78183        3.47667
F         11.36919        2.35269        3.98082
O         11.10820       -0.33591        1.57303
H          0.84306       -0.94466        4.34846
H          0.64363       -0.56067        2.63084
H          0.63889        0.73992        3.84080
H          3.06874       -1.06922        3.20219
H          3.06265        0.23634        4.39459
H          2.60522        1.90678        2.56542
H          2.64669        0.58050        1.36771
H          4.47990        2.85854        1.39824
H          4.64685        1.48049        0.29157
H          6.74033        2.13966        2.44637
H          6.45134        4.15255        1.02168
H          6.37399        3.17003       -0.44378
H          8.75190        3.89688        1.10866
H         10.03405        2.42726       -0.21464
H          8.60225        1.99281       -1.13838
H          9.11037        0.10688        0.31608
H          6.91389        0.69407       -0.11841
H          5.73095       -0.52236        1.64091
H          7.24627       -0.52985        2.54097
H          7.99489       -3.37672       -0.56787
H          8.96356        0.39628        2.87355
H          9.15314        2.13906        2.62894
H         11.35867        1.74101        1.51791
H         12.06561       -0.50164        1.53941
