64

C          1.57604       -1.93264        1.23075
C          0.70729       -1.09431        0.32845
C          0.38462       -1.53635       -0.96736
C         -0.44512       -0.78304       -1.79512
C         -0.96429        0.43556       -1.34604
C         -0.65208        0.90101       -0.06425
C          0.18073        0.12853        0.76002
C         -1.18643        2.22575        0.42716
N         -0.08836        3.20180        0.64302
C          0.62586        3.44413       -0.60833
C          1.93504        4.18659       -0.38454
N          1.58683        5.48851        0.32398
C          0.74199        5.29372        1.55608
C         -0.50921        4.47214        1.24436
C         -1.29916        4.29827        2.56619
C         -2.82451        4.32783        2.38259
O         -3.47168        3.29895        2.51163
C         -3.48022        5.61954        2.01154
C         -4.78143        5.56410        1.47840
C         -5.44731        6.73212        1.11759
C         -4.82996        7.97542        1.29771
C         -3.54252        8.04536        1.83818
C         -2.86826        6.87465        2.18589
C          2.73523        4.51416       -1.66381
C          2.07256        5.53096       -2.57719
C          1.18230        5.05975       -3.56115
C          0.50219        5.92898       -4.40873
C          0.70774        7.30624       -4.28785
C          1.60443        7.78709       -3.33793
C          2.30538        6.92474       -2.47413
C          3.29930        7.54860       -1.51436
H          1.04895       -2.84687        1.54260
H          1.86095       -1.38760        2.13950
H          2.49498       -2.25213        0.71941
H          0.78509       -2.48751       -1.32398
H         -0.69077       -1.14525       -2.79401
H         -1.61914        1.02452       -1.99203
H          0.42136        0.49065        1.76284
H         -1.71434        2.08879        1.37921
H         -1.93123        2.61831       -0.29597
H         -0.00049        3.99791       -1.34427
H          0.86552        2.47294       -1.06261
H          2.55579        3.61993        0.32456
H          1.08983        6.07341       -0.37327
H          2.44646        6.00206        0.55770
H          0.48024        6.29230        1.92881
H          1.36829        4.77375        2.29336
H         -1.13561        5.06313        0.53256
H         -1.01511        5.09675        3.26888
H         -1.02760        3.34602        3.03739
H         -5.25117        4.58730        1.35984
H         -6.45308        6.67714        0.70000
H         -5.35570        8.89134        1.02554
H         -3.07052        9.01504        2.00032
H         -1.87687        6.95264        2.63513
H          2.86650        3.56392       -2.20051
H          3.74626        4.83422       -1.37382
H          1.03801        3.98290       -3.67078
H         -0.17294        5.53496       -5.16853
H          0.18815        8.00129       -4.94775
H          1.79020        8.86094       -3.27067
H          3.86055        8.34794       -2.01499
H          4.04323        6.83880       -1.12902
H          2.80526        8.03159       -0.65328
