73

O          1.10648        0.60472       -2.21844
C          2.37192       -0.01091       -2.11416
C          2.87778       -0.45399       -3.50563
F          3.25568        0.58161       -4.28579
F          3.96199       -1.28696       -3.38215
F          1.92035       -1.14578       -4.16098
C          3.26387        1.04281       -1.43662
C          4.71548        0.61998       -1.18167
C          4.96693       -0.62484       -0.27994
C          6.48071       -0.55142       -0.07224
N          6.75694        0.93512        0.11164
C          5.71624        1.71907       -0.68818
C          5.33214        3.06059        0.01685
C          4.51018        3.20263        1.37829
C          5.26608        2.95718        2.76520
C          5.81078        4.19146        3.60528
C          4.85933        5.27722        4.28662
C          3.60116        4.84242        5.13794
C          3.75429        3.99308        6.46414
C          4.58256        4.59597        7.66181
F          4.21745        5.86033        7.91958
F          4.35396        3.84115        8.74763
F          5.89970        4.56225        7.38645
F          2.48914        3.78984        6.90309
F          4.30501        2.78742        6.15813
F          2.96278        5.99009        5.45873
F          2.79189        4.12116        4.30537
F          5.68298        6.01140        5.07390
F          4.38445        6.08689        3.31219
F          6.54775        3.62833        4.59429
F          6.64331        4.88437        2.78594
F          4.49759        2.18345        3.53503
F          6.41979        2.20307        2.49716
F          4.00313        4.44901        1.38535
F          3.47340        2.32642        1.33033
F          6.51395        3.74280        0.19237
F          4.59994        3.73099       -0.91039
C          4.15015       -0.71625        1.02020
C          4.28942       -2.09010        1.68741
C          3.24909       -2.43577        2.75516
C          3.25985       -1.54803        4.08365
C          2.19473       -0.38417        4.22798
C          0.71381       -0.68000        4.71206
C          0.40137       -1.22468        6.17174
C          1.03613       -0.49391        7.41197
F          0.84459        0.83605        7.33504
F          0.44831       -0.95508        8.52531
F          2.35792       -0.74318        7.49129
F         -0.94630       -1.12353        6.29686
F          0.73966       -2.53445        6.23718
F          0.07518        0.51367        4.58678
F          0.14080       -1.56298        3.85816
F          2.71489        0.52841        5.08650
F          2.08196        0.22554        3.00688
F          3.16722       -2.34863        5.16305
F          4.49231       -0.93542        4.13173
F          1.99770       -2.41748        2.19841
F          3.49105       -3.71990        3.15363
H          0.47086       -0.02438       -2.59936
H          2.32259       -0.94005       -1.51286
H          2.74789        1.31311       -0.50996
H          3.24503        1.93626       -2.07535
H          5.13710        0.34153       -2.15964
H          4.75494       -1.52008       -0.88251
H          7.03467       -0.87764       -0.96117
H          6.86770       -1.08096        0.80616
H          7.70917        1.18720       -0.17728
H          6.68438        1.19077        1.11104
H          6.24247        2.12034       -1.56505
H          3.09322       -0.54152        0.78158
H          4.42779        0.07436        1.73006
H          5.27984       -2.23092        2.14224
H          4.16358       -2.88596        0.93651
