62

O          4.72570       -7.15157        0.59844
C          3.70655       -6.61550        1.44561
C          3.31736       -5.24003        0.94915
O          4.41656       -4.34349        1.17334
C          4.37763       -3.12556        0.47438
O          5.65660       -2.84767       -0.08253
C          6.04711       -3.73957       -1.10667
C          7.58669       -3.73052       -1.16578
C          8.24628       -4.29563        0.10112
C          7.78995       -5.69719        0.51438
C          8.52355       -6.24737        1.75363
C          7.98501       -7.60870        2.13159
C          8.50737       -8.77642        1.55667
C          7.94947      -10.02690        1.83693
C          6.85477      -10.12895        2.69926
C          6.33181       -8.97405        3.29119
C          6.89626       -7.72557        3.01076
N          7.95590       -4.65375       -2.37166
C          8.93442       -3.91064       -3.24934
C          8.48919       -2.45626       -3.09526
C          8.16896       -2.36290       -1.59122
C          9.51296       -1.43023       -3.59249
C          9.84906       -1.57195       -5.07675
O          8.63537       -1.60487       -5.80816
C          8.83157       -1.62304       -7.22945
C          7.47489       -1.59384       -7.90483
H          5.24336       -7.78867        1.12041
H          4.05791       -6.53936        2.48850
H          2.80590       -7.25588        1.43555
H          2.41925       -4.89726        1.49225
H          3.07600       -5.28218       -0.12920
H          4.19371       -2.28284        1.15714
H          3.60241       -3.15564       -0.31696
H          5.63744       -3.40624       -2.08511
H          5.68461       -4.76187       -0.90041
H          8.01919       -3.58008        0.90571
H          9.34196       -4.26154       -0.03372
H          7.93865       -6.43110       -0.30408
H          6.70959       -5.70120        0.71482
H          8.38985       -5.54510        2.59111
H          9.60621       -6.30829        1.55807
H          9.36863       -8.70949        0.88694
H          8.37633      -10.92452        1.38777
H          6.42072      -11.10411        2.92143
H          5.49261       -9.04761        3.98436
H          6.49366       -6.82759        3.48558
H          7.10325       -4.86412       -2.90727
H          8.31536       -5.55204       -2.02262
H          8.88175       -4.30997       -4.26881
H          9.93998       -4.08218       -2.83991
H          7.56794       -2.31964       -3.68538
H          7.46167       -1.55772       -1.35990
H          9.08997       -2.16336       -1.02247
H         10.44479       -1.50921       -3.00796
H          9.10638       -0.42460       -3.40977
H         10.44061       -2.49357       -5.26686
H         10.48033       -0.72142       -5.39630
H          9.39974       -2.53076       -7.51218
H          9.43971       -0.74778       -7.52593
H          6.86952       -2.46362       -7.61434
H          7.59518       -1.61231       -8.99621
H          6.92500       -0.68212       -7.63600
