71

C          1.11639       -0.23467        0.09346
C          2.62677       -0.12310       -0.12765
C          3.10056        1.31383       -0.37531
C          4.60981        1.42176       -0.61551
C          5.09865        2.86103       -0.81418
C          6.60261        2.93616       -1.11303
C          7.08867        4.38324       -1.21249
S          8.87089        4.34534       -1.65730
C          9.26191        6.01504       -1.52805
N          8.52535        7.05141       -1.18296
N          9.35528        8.16166       -1.24297
C         10.52545        7.71744       -1.58261
O         10.56346        6.37761       -1.82370
N         11.69446        8.43838       -1.86569
C         12.34220        9.35107       -1.14894
C         13.38677        9.99579       -2.02674
C         13.60601        8.96832       -3.15571
C         12.26882        8.24357       -3.24345
C         12.87266       11.37936       -2.53100
C         14.00152       12.21423       -3.14047
C         13.52177       13.59304       -3.59603
C         14.64758       14.39044       -4.25533
O         15.74154       13.94127       -4.49429
O         14.34815       15.67832       -4.58326
C         12.18840        9.64235        0.32789
C         10.73305       10.09239        0.75097
C         10.61428       10.42676        2.24470
C         10.20236       11.25078       -0.10202
C         12.59255        8.29228        1.05605
O         11.68494        7.22289        0.91513
C         13.24458       10.66980        0.79271
H          0.81309       -1.27478        0.27390
H          0.55590        0.12722       -0.78125
H          0.79371        0.35992        0.96113
H          2.92147       -0.75411       -0.98325
H          3.15957       -0.53344        0.74679
H          2.81984        1.94334        0.48761
H          2.56077        1.73272       -1.24270
H          4.88173        0.81861       -1.49934
H          5.14910        0.97078        0.23566
H          4.87254        3.45297        0.08931
H          4.53782        3.33322       -1.63863
H          6.81550        2.40278       -2.05433
H          7.16414        2.41374       -0.32141
H          6.98799        4.91830       -0.25955
H          6.55942        4.94607       -1.99273
H         14.30742       10.16850       -1.45629
H         14.40547        8.26620       -2.88525
H         13.88206        9.43825       -4.10614
H         12.34438        7.16877       -3.44177
H         11.56036        8.68281       -3.96125
H         12.41824       11.93352       -1.69886
H         12.06352       11.21898       -3.26300
H         14.46037       11.69891       -3.99676
H         14.80796       12.34028       -2.40148
H         13.12097       14.17138       -2.74613
H         12.69676       13.50288       -4.32402
H         13.43636       15.89948       -4.32381
H         10.07655        9.23725        0.54894
H         11.10978       11.37076        2.50859
H         11.01182        9.64221        2.90444
H          9.55104       10.54228        2.49397
H         10.80422       12.16432        0.01206
H          9.17889       11.49710        0.20840
H         10.15256       10.99068       -1.16819
H         12.76136        8.55115        2.11364
H         13.55230        7.93973        0.65032
H         10.93432        7.35935        1.51556
H         13.12976       11.65085        0.31842
H         14.26979       10.32046        0.61426
H         13.14700       10.82039        1.87283
