134

C          0.44770       -0.97317        0.04392
C          1.91429       -0.63171        0.32081
C          2.53995        0.27455       -0.74547
C          4.01404        0.60340       -0.48878
C          4.63689        1.51351       -1.55248
C          6.11916        1.81895       -1.31311
C          6.73744        2.73309       -2.37587
C          8.22187        3.03403       -2.14527
C          8.83898        3.94002       -3.21614
C         10.31618        4.26575       -2.97252
C         10.93645        5.15556       -4.05527
C         12.39733        5.52976       -3.78228
C         13.02221        6.40237       -4.87649
C         14.45967        6.83661       -4.56952
C         15.08785        7.69180       -5.67489
C         16.49376        8.20121       -5.33750
C         17.10397        9.04819       -6.46000
C         18.46231        9.65587       -6.08337
C         19.24090       10.37031       -7.19827
C         20.74696       10.51921       -6.91425
C         21.16558       11.92152       -7.42827
C         19.84857       12.59796       -7.54285
N         18.83345       11.80585       -7.43179
C         17.43124       12.22248       -7.61094
C         16.79694       11.60832       -8.86625
C         15.26640       11.71533       -8.84719
C         14.61024       10.82975       -9.91240
C         13.08251       10.76765       -9.80788
C         12.46457        9.72497      -10.74514
C         10.94453        9.58681      -10.61288
C         10.36723        8.46388      -11.48063
C          8.84991        8.29429      -11.35449
C          8.30152        7.12030      -12.17261
C          6.78547        6.93525      -12.05228
C          6.25802        5.70870      -12.80466
C          4.74225        5.51889      -12.69029
C          4.22343        4.26333      -13.40043
C          2.70964        4.07394      -13.27189
C         22.02122       12.02077       -8.76430
C         21.19224       11.69325      -10.06060
C         21.48999       10.42423      -10.89059
C         20.95567        9.12443      -10.27501
C         20.90221       10.60740      -12.29916
C         22.54648       13.46841       -8.87514
O         21.45489       14.39091       -8.99515
C         23.28035       11.15207       -8.58226
H          0.02818       -1.62077        0.82629
H          0.33462       -1.49775       -0.91668
H         -0.17207       -0.06518       -0.00310
H          2.50174       -1.56275        0.39527
H          2.00000       -0.14316        1.30656
H          1.96077        1.21309       -0.80993
H          2.44074       -0.20681       -1.73494
H          4.59117       -0.33653       -0.43056
H          4.11481        1.07949        0.50261
H          4.07148        2.46106       -1.59851
H          4.51876        1.04531       -2.54577
H          6.68438        0.87089       -1.27404
H          6.24072        2.28194       -0.31773
H          6.17468        3.68277       -2.41140
H          6.60964        2.27139       -3.37110
H          8.78490        2.08503       -2.10174
H          8.34839        3.50379       -1.15369
H          8.26400        4.88145       -3.27202
H          8.72834        3.46176       -4.20565
H         10.89128        3.32578       -2.89959
H         10.42201        4.75951       -1.99022
H         10.33862        6.07902       -4.15422
H         10.86510        4.64484       -5.03178
H         12.99600        4.60976       -3.66282
H         12.46124        6.05807       -2.81469
H         12.39718        7.30050       -5.02681
H         13.00076        5.85613       -5.83589
H         15.08550        5.94357       -4.39820
H         14.47281        7.40082       -3.62048
H         14.43205        8.55655       -5.88218
H         15.12327        7.10956       -6.61254
H         17.15784        7.34778       -5.11765
H         16.45062        8.79850       -4.40986
H         16.37974        9.83227       -6.72909
H         17.22540        8.42567       -7.36334
H         19.12196        8.83913       -5.74683
H         18.36889       10.33061       -5.21501
H         19.06792        9.85190       -8.15456
H         21.31290        9.70370       -7.37256
H         20.91949       10.46353       -5.83047
H         21.76401       12.44794       -6.66564
H         19.71201       13.65952       -7.75235
H         17.41796       13.31986       -7.64367
H         16.88367       11.90766       -6.71114
H         17.06621       10.54326       -8.92670
H         17.21822       12.08859       -9.76320
H         14.95308       12.76520       -8.96918
H         14.89887       11.40024       -7.85447
H         15.01263        9.80581       -9.80947
H         14.90442       11.17170      -10.91936
H         12.65137       11.76211      -10.01388
H         12.80359       10.52523       -8.76703
H         12.93203        8.74455      -10.54317
H         12.72137        9.96995      -11.79066
H         10.46105       10.54428      -10.87316
H         10.68769        9.39607       -9.55583
H         10.86013        7.51282      -11.21066
H         10.62805        8.64652      -12.53808
H          8.34781        9.22738      -11.66468
H          8.58652        8.14956      -10.29167
H          8.80674        6.19144      -11.85294
H          8.56961        7.25740      -13.23499
H          6.27529        7.84183      -12.42293
H          6.51216        6.85084      -10.98551
H          6.76674        4.80528      -12.42340
H          6.53838        5.78353      -13.87040
H          4.22938        6.40758      -13.09909
H          4.46030        5.47436      -11.62308
H          4.74165        3.37809      -12.99375
H          4.50008        4.30996      -14.46747
H          2.40660        3.98476      -12.21786
H          2.37075        3.16734      -13.79193
H          2.16195        4.92651      -13.70061
H         21.31953       12.55376      -10.73297
H         20.11275       11.69467       -9.83488
H         22.58249       10.32626      -11.00309
H         19.85968        9.16758      -10.16356
H         21.39004        8.89876       -9.29201
H         21.17791        8.26623      -10.92335
H         19.80869       10.73342      -12.25936
H         21.10986        9.73360      -12.93117
H         21.32190       11.49145      -12.79860
H         23.19831       13.52465       -9.76357
H         23.15890       13.71100       -7.98693
H         21.80857       15.26211       -9.22934
H         23.06107       10.08011       -8.53356
H         23.81174       11.42583       -7.65932
H         23.97524       11.30177       -9.41897
