53

C          3.24549        1.25490       -2.60340
C          4.71085        1.20979       -2.15869
C          4.94684        0.55217       -0.78811
C          4.48118       -0.90857       -0.64897
C          5.03223       -1.88552       -1.69143
S          6.85521       -1.81235       -1.83177
C          7.39741       -2.60858       -0.27836
C          8.92263       -2.74250       -0.13849
O          9.46950       -3.80094       -0.95753
C          9.19745       -5.09044       -0.53953
O          8.40602       -5.34179        0.34199
C         10.02265       -6.08135       -1.31852
S         11.50234       -6.55636       -0.34756
C          9.66182       -1.45690       -0.51210
O         11.05674       -1.51323       -0.19177
C         11.36486       -1.32728        1.13118
O         10.53109       -1.11780        1.98726
C         12.85127       -1.44433        1.35964
S         13.38358       -3.19718        1.33518
C          7.21134       -3.06121       -3.11776
C          7.00479       -2.49527       -4.52559
C          7.71612       -1.15511       -4.77980
N          9.07834       -1.16507       -4.23128
H          3.13990        1.80340       -3.54817
H          2.61869        1.76106       -1.85541
H          2.81903        0.25321       -2.76415
H          5.10662        2.23508       -2.10784
H          5.31898        0.70948       -2.93399
H          4.42615        1.13521       -0.01310
H          6.01891        0.62428       -0.53547
H          3.38529       -0.96937       -0.73976
H          4.70859       -1.27645        0.36267
H          4.69460       -1.62836       -2.70613
H          4.75489       -2.92830       -1.48202
H          6.90830       -3.58546       -0.17761
H          7.02571       -1.93630        0.50823
H          9.09827       -2.99354        0.91861
H         10.31126       -5.69268       -2.30163
H          9.44886       -7.00854       -1.43209
H         12.08561       -5.33004       -0.35324
H          9.19321       -0.61012        0.01323
H          9.62780       -1.29320       -1.59950
H         13.11254       -0.97663        2.31402
H         13.40852       -0.96542        0.54514
H         12.77334       -3.55034        2.49192
H          6.59512       -3.94762       -2.91418
H          8.26629       -3.30040       -2.93910
H          5.93616       -2.39545       -4.76584
H          7.39460       -3.26357       -5.21313
H          7.16690       -0.34405       -4.27467
H          7.65887       -0.93572       -5.86055
H          9.48442       -0.23029       -4.27963
H          9.69039       -1.76615       -4.78719
