49

O          2.40236        3.39451        0.57328
C          2.42839        3.44817       -0.79731
O          3.32617        3.87303       -1.45846
C          1.10728        2.88138       -1.40172
C          1.09688        1.33548       -1.69983
C          1.12009        0.38974       -0.43053
C         -0.00416        0.67305        0.60976
O         -1.10436        0.23846        0.58301
N          0.43479        1.55434        1.78704
C          0.78135        0.74530        3.03664
C          1.15650        1.66908        4.19359
C         -0.04094        2.43844        4.75163
C          0.24551        3.46992        5.90605
C          1.37722        4.56473        5.72371
C          1.37784        5.57965        4.50987
C          0.18824        6.58847        4.24929
C         -0.23329        7.67134        5.32421
C          0.78776        8.76011        5.85077
C          1.46562        9.73018        4.81248
F          0.54781       10.29448        4.01133
F          2.11038       10.68963        5.48969
F          2.36042        9.06590        4.05277
F          0.07403        9.52693        6.70894
F          1.77320        8.13234        6.54349
F         -1.28403        8.32190        4.76842
F         -0.67432        7.00097        6.42051
F          0.50816        7.23378        3.09820
F         -0.92597        5.84393        4.01680
F          2.52543        6.27959        4.61040
F          1.46502        4.81379        3.36141
F          1.42224        5.26491        6.87166
F          2.55929        3.87783        5.59586
F         -0.91665        4.08160        6.21287
F          0.64821        2.72690        6.97493
F         -0.68803        3.11686        3.72014
F         -0.95474        1.55531        5.24224
F          0.97863       -0.87594       -0.84886
F          2.33241        0.52107        0.20139
F         -0.03990        1.05849       -2.37350
F          2.16881        1.02072       -2.45375
F          0.05444        3.10818       -0.52370
F          0.85644        3.52505       -2.54535
H          3.24231        3.78773        0.89104
H          1.22869        2.17197        1.51331
H         -0.36318        2.17091        2.01873
H          1.62380        0.09563        2.77250
H         -0.09623        0.12610        3.26135
H          1.95334        2.36388        3.90064
H          1.56203        1.04795        5.00494
