57

N          3.70838       -1.00620        3.60049
C          2.83221       -1.64185        2.59210
C          3.16130       -1.17708        1.16907
C          4.64847       -1.26195        0.77403
C          5.21490       -2.66623        0.99462
S          6.97357       -2.78404        0.51401
C          7.82944       -1.67639        1.75294
C          7.33772       -1.82170        3.22114
O          6.49933       -0.76384        3.60666
C          9.35117       -1.78745        1.57256
C          9.87898       -1.40583        0.18960
C          7.43066       -4.46288        1.09703
C          6.62074       -5.60493        0.47617
C          6.97280       -5.96004       -0.97329
S          8.62883       -6.68126       -1.13447
C          9.54328       -5.42818       -2.06704
S          8.87481       -3.96105       -2.51527
N         10.80202       -5.81216       -2.35748
C         11.71174       -4.91852       -3.10233
C         11.62421       -5.12007       -4.61431
C         11.37241       -7.11808       -1.97814
C         12.10491       -7.08508       -0.63535
H          3.45530       -1.33829        4.53346
H          3.54012        0.00363        3.61773
H          1.76269       -1.44901        2.78088
H          2.96631       -2.73095        2.68152
H          2.84554       -0.12960        1.04352
H          2.54730       -1.76370        0.46840
H          5.22099       -0.53515        1.36575
H          4.75540       -0.97843       -0.28319
H          4.70981       -3.39976        0.34963
H          5.12728       -2.99723        2.03828
H          7.50406       -0.68393        1.40071
H          8.23868       -1.78480        3.85487
H          6.87661       -2.80976        3.40666
H          5.52937       -1.00653        3.56069
H          9.70001       -2.78977        1.86886
H          9.76600       -1.09904        2.32571
H          9.55598       -2.10316       -0.59773
H         10.97656       -1.40502        0.19315
H          9.54833       -0.39551       -0.09211
H          7.33476       -4.45487        2.19069
H          8.49268       -4.56035        0.82634
H          5.53942       -5.41066        0.54841
H          6.79905       -6.47908        1.12178
H          6.96255       -5.08295       -1.64586
H          6.26903       -6.71200       -1.35352
H         12.72725       -5.12942       -2.73756
H         11.45505       -3.88567       -2.83659
H         11.87246       -6.15136       -4.90101
H         12.33667       -4.45157       -5.11546
H         10.61635       -4.88491       -4.97809
H         12.06077       -7.40659       -2.78505
H         10.57038       -7.86933       -1.97153
H         12.91385       -6.34238       -0.63868
H         12.55151       -8.06730       -0.43130
H         11.41637       -6.84710        0.18534
