98

C          0.67312       -0.04484       -0.20563
C          2.20299        0.00550       -0.17999
C          2.78182        0.14411        1.23237
C          4.31206        0.20530        1.27067
C          4.88407        0.33355        2.68593
C          6.41294        0.41752        2.73006
C          6.97661        0.53296        4.14975
C          8.50187        0.66417        4.20053
C          9.05958        0.73224        5.62535
C         10.57758        0.92878        5.68537
C         11.12751        0.95327        7.11504
C         12.63838        1.19556        7.18764
C         13.17343        1.17450        8.62170
C         14.69942        1.42514        8.69281
C         15.19281        1.41151       10.11201
C         15.55444        0.20288       10.69316
C         15.95151        0.11302       12.04232
C         16.29983       -1.11065       12.67296
C         16.67096       -1.13400       13.99543
C         17.03005       -2.35662       14.80840
O         17.45506       -1.90375       16.07465
C         17.67491       -2.94761       17.05208
C         18.13556       -2.29654       18.34371
C         18.34153       -3.30637       19.48065
C         18.81620       -2.64049       20.77787
C         18.96933       -3.61335       21.95123
C         19.43032       -2.93270       23.24473
C         19.54396       -3.88601       24.43849
C         20.01079       -3.20052       25.72767
C         20.08953       -4.14954       26.92619
N         16.71617        0.04893       14.68570
C         16.40422        1.23794       14.15543
C         15.99971        1.32569       12.82098
C         15.64108        2.55950       12.21688
C         15.23404        2.61536       10.90164
C         14.84767        3.94866       10.30486
O         15.85054        4.33886        9.37851
C         15.49078        5.51823        8.65870
H          0.28900       -0.14566       -1.23013
H          0.23656        0.86945        0.22389
H          0.29159       -0.89650        0.37737
H          2.55486        0.84750       -0.80012
H          2.61049       -0.90541       -0.65080
H          2.43462       -0.70196        1.85188
H          2.36889        1.05214        1.70695
H          4.65829        1.05694        0.65864
H          4.72648       -0.69846        0.78984
H          4.54835       -0.52556        3.29346
H          4.45742        1.22911        3.17142
H          6.74777        1.28372        2.13242
H          6.84370       -0.47216        2.23771
H          6.66615       -0.34949        4.73694
H          6.52081        1.40381        4.65336
H          8.80833        1.56735        3.64390
H          8.96191       -0.18748        3.66910
H          8.78898       -0.19161        6.16660
H          8.56607        1.55567        6.17150
H         10.84497        1.86947        5.17284
H         11.07537        0.12345        5.11714
H         10.88632       -0.00204        7.61357
H         10.60544        1.73569        7.69374
H         12.87992        2.16570        6.72003
H         13.16543        0.43161        6.59028
H         12.94725        0.20255        9.09134
H         12.64576        1.93138        9.22638
H         14.94902        2.38081        8.21387
H         15.21613        0.63752        8.12410
H         15.52292       -0.70808       10.09187
H         16.26819       -2.04377       12.10909
H         17.82155       -2.93143       14.28962
H         16.14266       -3.01533       14.89156
H         18.43415       -3.64933       16.66252
H         16.73139       -3.50548       17.19507
H         17.38607       -1.54741       18.64877
H         19.07376       -1.75083       18.15254
H         19.07326       -4.07224       19.17162
H         17.39684       -3.84430       19.67070
H         18.10367       -1.84465       21.05775
H         19.77928       -2.13277       20.59442
H         19.68512       -4.40887       21.67958
H         18.00569       -4.12193       22.13039
H         18.72829       -2.11812       23.49662
H         20.40629       -2.44542       23.07226
H         20.24060       -4.70602       24.18938
H         18.56532       -4.36656       24.61567
H         19.32791       -2.36630       25.96252
H         20.99881       -2.74080       25.55544
H         19.10618       -4.58677       27.15430
H         20.43857       -3.62981       27.82900
H         20.78313       -4.98143       26.73344
H         17.01825       -0.05459       15.66364
H         16.48261        2.10503       14.81053
H         15.69043        3.47548       12.80916
H         14.73951        4.70154       11.10913
H         13.86238        3.87106        9.80264
H         16.31994        5.73386        7.97592
H         15.34681        6.37638        9.33848
H         14.56492        5.36536        8.07510
