51

C          0.70939        0.48401        0.03743
O          2.12726        0.39396        0.34855
C          2.74186        1.52290        0.69830
O          2.16259        2.61255        0.70551
C          4.15932        1.23577        1.15774
C          5.16693        2.38495        1.36290
C          4.63521        3.59468        2.15441
N          4.03235        4.43240        1.03650
C          4.92837        4.31840       -0.17900
C          5.78896        3.05521        0.08645
C          6.09192        2.15469       -1.09325
C          7.41294        1.71619       -1.25786
C          7.79189        0.87221       -2.30179
C          6.82945        0.45540       -3.21966
C          5.50343        0.87365       -3.09074
C          5.13164        1.71472       -2.03517
O          3.84448        2.16058       -1.84452
C          2.84000        1.77320       -2.78901
C          5.68392        4.39116        2.95148
C          6.25331        3.57140        4.08840
C          5.50726        3.36126        5.25842
C          6.01596        2.57530        6.29370
C          7.27941        1.98881        6.17225
C          8.03247        2.19655        5.01436
C          7.52171        2.98405        3.97910
H          0.43037       -0.51618       -0.30266
H          0.53327        1.22920       -0.74574
H          0.14684        0.75780        0.93816
H          4.58868        0.48726        0.47703
H          4.04174        0.70982        2.12082
H          5.99008        1.93651        1.93499
H          3.80606        3.32211        2.82207
H          3.85645        5.40252        1.31703
H          3.11906        3.92557        0.82720
H          5.53999        5.22335       -0.25610
H          4.28811        4.22948       -1.06028
H          6.77184        3.41826        0.41885
H          8.16544        2.05782       -0.54324
H          8.82914        0.55511       -2.40109
H          7.10415       -0.19722       -4.04854
H          4.76532        0.53997       -3.81742
H          2.67174        0.68533       -2.76845
H          3.10280        2.09034       -3.80874
H          1.92888        2.29317       -2.47452
H          5.19937        5.29782        3.35116
H          6.49842        4.72965        2.29331
H          4.52642        3.83015        5.37181
H          5.43026        2.42925        7.20165
H          7.67972        1.38117        6.98405
H          9.02453        1.75399        4.92001
H          8.12504        3.15896        3.08492
