97

C         10.79354       -7.56769       14.14005
C         10.44390       -6.50960       13.09063
C         11.45857       -5.36295       13.01923
C         11.13093       -4.31682       11.94874
C         12.12428       -3.15119       11.90305
C         11.81630       -2.12214       10.81013
C         12.79504       -0.94340       10.78525
C         12.50977        0.07110        9.67259
C         13.48903        1.24927        9.65538
C         13.21487        2.26354        8.53935
C         14.21362        3.42547        8.52887
C         13.97649        4.42988        7.39529
C         14.89768        5.65261        7.42786
N         16.35149        5.31949        7.38986
C         16.90865        4.62712        6.38590
N         16.38117        4.61720        5.11977
C         15.86823        5.68695        4.39733
N         15.77922        6.94222        4.70298
N         15.22993        7.56474        3.56969
C         15.05391        6.62671        2.67616
O         15.43377        5.36945        3.15007
S         14.48873        6.66724        1.04732
C         14.42821        8.47798        0.75232
C         14.26254        8.69466       -0.75327
C         14.21465       10.18508       -1.11874
C         14.09025       10.41062       -2.62803
N         17.99613        3.87682        6.59660
C         17.16801        5.68037        8.55938
C         17.36164        4.54359        9.57401
O         17.82306        3.45136        9.25402
O         17.01060        4.89955       10.79769
C         17.26406        3.91589       11.87670
C         18.70133        3.99922       12.36540
C         18.97744        2.99591       13.49454
C         20.43560        3.03326       13.96729
C         20.74770        2.01898       15.07226
C         22.21258        2.04230       15.52090
C         22.53282        1.03569       16.63184
C         24.00128        1.05856       17.06265
H         10.04107       -8.36738       14.17239
H         10.85398       -7.12861       15.14699
H         11.76586       -8.03607       13.92652
H          9.44443       -6.09445       13.30404
H         10.36565       -6.98642       12.09890
H         12.46431       -5.77770       12.82789
H         11.52001       -4.87045       14.00600
H         10.11459       -3.92178       12.12317
H         11.09711       -4.80689       10.95966
H         13.14433       -3.54693       11.75248
H         12.13925       -2.64726       12.88557
H         10.78945       -1.73997       10.94650
H         11.82269       -2.62292        9.82605
H         13.82462       -1.32731       10.67228
H         12.77069       -0.42948       11.76251
H         11.48009        0.45400        9.78110
H         12.53909       -0.44156        8.69512
H         14.51949        0.86468        9.55131
H         13.45609        1.76486       10.63156
H         12.19053        2.65982        8.64363
H         13.24273        1.74917        7.56278
H         15.23170        3.00730        8.45244
H         14.17076        3.95324        9.49845
H         12.94859        4.82362        7.44907
H         14.04429        3.92270        6.41915
H         14.75719        6.19911        8.36825
H         14.68370        6.35841        6.61209
H         16.58364        3.79118        4.56131
H         15.36576        8.90695        1.12978
H         13.59132        8.89546        1.32693
H         13.34117        8.20086       -1.10440
H         15.09857        8.21323       -1.28641
H         15.12457       10.68098       -0.74294
H         13.36784       10.66180       -0.59878
H         14.94745        9.98318       -3.16836
H         14.04814       11.48142       -2.86559
H         13.17843        9.94474       -3.02883
H         18.17325        3.54010        7.56631
H         18.60252        3.61807        5.82696
H         16.70045        6.54465        9.04043
H         18.17020        5.97970        8.21533
H         17.01366        2.92021       11.48789
H         16.54362        4.20500       12.65082
H         18.90667        5.02441       12.71170
H         19.38427        3.79507       11.52584
H         18.73301        1.97721       13.14778
H         18.30740        3.19988       14.34691
H         20.67786        4.04941       14.32356
H         21.09976        2.84833       13.10500
H         20.48961        1.00459       14.72048
H         20.09528        2.21275       15.94157
H         22.47337        3.05835       15.86582
H         22.86350        1.84325       14.65110
H         22.26319        0.02141       16.29193
H         21.88912        1.24291       17.50331
H         24.66780        0.81071       16.22305
H         24.19685        0.33419       17.86496
H         24.29408        2.05175       17.43420
