54

C          2.48248       -3.81498       -0.73155
C          2.24971       -3.01794       -2.01621
C          3.05999       -1.71123       -2.08125
C          4.55868       -1.88520       -2.06036
O          5.33822       -1.25298       -1.36535
O          4.97687       -2.83903       -2.94491
C          6.40066       -3.04563       -3.00618
C          6.87716       -3.95019       -1.85767
C          8.40045       -3.99494       -1.72305
C          9.03914       -5.29486       -1.15750
C          8.34430       -6.01478        0.01683
C          7.21969       -6.98530       -0.35931
C          6.74406       -7.81444        0.83704
C          5.41805       -8.51630        0.54353
O          4.68974       -8.22355       -0.37410
O          5.05910       -9.49974        1.41314
N         10.33192       -4.72851       -0.70798
C         10.15028       -3.43460       -0.33964
N         11.03624       -2.73795        0.36795
N          8.97659       -2.96142       -0.80106
C          8.57252       -1.53234       -0.86414
C          8.53154       -0.83606        0.50787
O          9.81350       -0.41794        1.02292
C          9.37199       -0.75299       -1.91479
H          1.86272       -4.72072       -0.71431
H          2.23338       -3.22153        0.16034
H          3.53021       -4.13889       -0.63795
H          1.18620       -2.75128       -2.09956
H          2.48459       -3.63678       -2.89374
H          2.81109       -1.04450       -1.24501
H          2.81729       -1.17250       -3.01239
H          6.90397       -2.06946       -3.00853
H          6.57431       -3.53138       -3.97529
H          6.50737       -4.96232       -2.06232
H          6.42374       -3.62827       -0.91010
H          8.85439       -3.83437       -2.72042
H          9.21754       -6.00196       -1.97982
H          7.98384       -5.27165        0.74760
H          9.13369       -6.58835        0.53429
H          7.55889       -7.66446       -1.15755
H          6.34346       -6.46077       -0.75837
H          6.57187       -7.16451        1.71337
H          7.50561       -8.55022        1.14377
H          5.74998       -9.63236        2.08619
H         10.96754       -5.31193       -0.16993
H         11.85998       -3.19694        0.73613
H         10.80766       -1.77129        0.67239
H          7.51161       -1.55786       -1.15691
H          8.10104       -1.50966        1.26118
H          7.86612        0.03419        0.41773
H         10.01988        0.47066        0.69396
H         10.43638       -0.67844       -1.65464
H          8.96972        0.26493       -2.01099
H          9.29971       -1.22706       -2.90186
