92

C          1.00805       -1.25569        0.22065
C          2.35627       -0.77423       -0.32040
C          3.17179       -1.88754       -0.98812
C          4.49715       -1.40258       -1.58430
C          5.30820       -2.52242       -2.24627
C          6.58053       -2.01305       -2.93849
C          7.36924       -3.16397       -3.56673
S          8.76318       -2.45008       -4.52966
C          9.43603       -3.85326       -5.26895
N         10.28864       -3.88584       -6.27205
N         10.52971       -5.21916       -6.55149
C          9.82207       -5.89167       -5.69576
O          9.09777       -5.12596       -4.83078
N          9.80103       -7.27385       -5.53836
N          8.66119       -8.01825       -5.31146
C          7.29681       -7.47303       -5.16123
C          6.23239       -8.55513       -5.31583
C          4.82897       -7.96029       -5.12824
C          3.72449       -8.99213       -5.38780
C          2.31146       -8.46098       -5.12280
C          1.21775       -9.47883       -5.46550
C         -0.20077       -9.00639       -5.12914
C         -1.28140      -10.01325       -5.53816
C         -2.70156       -9.59573       -5.14264
C         -3.76972      -10.60835       -5.57080
C         -5.18417      -10.22651       -5.12567
C         -6.23756      -11.24408       -5.58318
N         -7.58369      -10.92256       -5.12239
C         -8.13072      -11.31572       -3.92243
C         -9.38148      -10.72254       -3.79513
C         -9.59246       -9.93853       -4.95420
C         -8.46502      -10.07628       -5.75552
N          8.98925       -9.28864       -5.22254
N         10.29283       -9.40539       -5.41779
C         10.82159       -8.19088       -5.61390
C         12.26506       -7.88559       -5.81279
C         12.87015       -7.45893       -4.43948
O         12.23017       -6.31186       -3.88729
C         13.00640       -9.09599       -6.42951
C         14.40532       -8.74258       -6.94161
H          0.45030       -0.43668        0.69424
H          1.13777       -2.04682        0.97420
H          0.37773       -1.66477       -0.58299
H          2.94800       -0.33253        0.49882
H          2.19249        0.03960       -1.04676
H          2.56492       -2.35356       -1.78485
H          3.36913       -2.68668       -0.25179
H          5.10603       -0.92736       -0.79619
H          4.29357       -0.61298       -2.32822
H          4.67595       -3.03886       -2.98982
H          5.57521       -3.28011       -1.48936
H          7.21624       -1.47861       -2.21458
H          6.30536       -1.28356       -3.71745
H          6.73973       -3.73731       -4.26205
H          7.77379       -3.83912       -2.80099
H          7.18546       -6.69536       -5.93191
H          7.24244       -6.98639       -4.17511
H          6.40357       -9.35523       -4.58219
H          6.32165       -9.01371       -6.31259
H          4.69065       -7.10066       -5.80699
H          4.73095       -7.56419       -4.10272
H          3.90200       -9.88164       -4.75939
H          3.79579       -9.34020       -6.43263
H          2.14761       -7.53797       -5.70616
H          2.22425       -8.16957       -4.06143
H          1.41958      -10.42392       -4.93165
H          1.27599       -9.72274       -6.54073
H         -0.39514       -8.03898       -5.62465
H         -0.27257       -8.81078       -4.04483
H         -1.05407      -10.99414       -5.08484
H         -1.23678      -10.16940       -6.63030
H         -2.93381       -8.61073       -5.58370
H         -2.74937       -9.45588       -4.04858
H         -3.51320      -11.60125       -5.16111
H         -3.74511      -10.72015       -6.66916
H         -5.45212       -9.23267       -5.51982
H         -5.22417      -10.14504       -4.02716
H         -5.98738      -12.24938       -5.21237
H         -6.26129      -11.30700       -6.68160
H         -7.59283      -11.98770       -3.26124
H        -10.06399      -10.85804       -2.96265
H        -10.47080       -9.34859       -5.19462
H         -8.22609       -9.64907       -6.72432
H         12.33815       -7.02487       -6.49627
H         13.94885       -7.29324       -4.57383
H         12.73871       -8.27681       -3.71587
H         12.66642       -5.51716       -4.23247
H         12.40155       -9.48597       -7.26095
H         13.05828       -9.90857       -5.68900
H         14.36954       -7.92985       -7.68131
H         14.85636       -9.61479       -7.43136
H         15.08793       -8.43824       -6.13674
