70

C          1.16241        0.05430       -0.07922
C          2.69084        0.01357       -0.00582
C          3.33879       -0.09536       -1.39668
C          4.84497       -0.16926       -1.29259
O          5.38697       -0.24020       -2.68705
C          6.64836       -0.57115       -2.80109
O          7.47818       -0.86527       -1.98761
N          6.98679       -0.53982       -4.25360
C          6.48509        0.18602       -5.30173
C          5.32690        1.11824       -5.29504
C          5.12093        1.81235       -6.64884
C          3.94216        2.78971       -6.62826
C          3.71053        3.44026       -7.99681
C          2.56805        4.46005       -8.01454
C          2.32063        5.06370       -9.40164
C          1.19188        6.09923       -9.42451
C          0.92434        6.68947      -10.81261
C         -0.20341        7.72779      -10.83023
C         -0.46833        8.31318      -12.21975
N          7.24464       -0.06931       -6.37803
N          8.18987       -0.92894       -6.02951
N          8.06494       -1.21270       -4.76412
C          8.93673       -2.17523       -4.06291
C          9.93199       -2.81544       -5.03632
O         10.64971       -3.71044       -4.22309
C         11.66134       -4.42889       -4.94521
C         12.38270       -5.32715       -3.95064
O         13.35827       -6.03950       -4.68310
C         14.12437       -6.91805       -3.86727
H          0.72571        0.13619        0.92410
H          0.75906       -0.85665       -0.54408
H          0.81094        0.91492       -0.66614
H          3.00834       -0.84049        0.61445
H          3.06305        0.91824        0.50189
H          3.05387        0.77528       -2.00881
H          2.96458       -0.99330       -1.91353
H          5.20018       -1.06290       -0.76284
H          5.29170        0.72354       -0.83302
H          5.47761        1.85746       -4.48923
H          4.42872        0.55069       -4.99908
H          4.95990        1.04935       -7.42571
H          6.04205        2.34411       -6.93217
H          4.12266        3.57350       -5.87163
H          3.02496        2.26265       -6.31164
H          3.50651        2.65022       -8.74033
H          4.64230        3.93135       -8.32717
H          2.78829        5.26940       -7.29650
H          1.64088        3.97978       -7.65541
H          2.08763        4.25281      -10.11401
H          3.25202        5.52914       -9.76912
H          1.43344        6.91597       -8.72153
H          0.26536        5.63632       -9.04117
H          0.67924        5.87367      -11.51567
H          1.85035        7.15096      -11.19912
H          0.04329        8.54180      -10.12758
H         -1.12693        7.26502      -10.44257
H          0.42545        8.81515      -12.61926
H         -1.28105        9.05188      -12.19707
H         -0.75336        7.52836      -12.93625
H          8.29799       -2.94381       -3.60624
H          9.45874       -1.64153       -3.25909
H         10.58835       -2.04882       -5.48953
H          9.40281       -3.33401       -5.85867
H         12.37430       -3.72413       -5.40933
H         11.20270       -5.03688       -5.74551
H         11.65834       -6.01348       -3.46832
H         12.84514       -4.71225       -3.15311
H         14.84513       -7.41509       -4.52611
H         13.48629       -7.68091       -3.38568
H         14.67162       -6.36476       -3.08268
