107

C         22.32317        1.56756        0.08366
C         21.44121        0.70229       -0.81846
C         20.16697        0.20649       -0.12737
C         19.28702       -0.66576       -1.02705
C         17.99058       -1.13656       -0.36045
C         17.11874       -1.99671       -1.28007
C         15.79481       -2.44107       -0.64991
C         14.93387       -3.27676       -1.60221
C         13.58333       -3.69283       -1.00770
C         12.69458       -4.45677       -1.97341
O         13.28541       -5.75472       -2.24167
C         12.65954       -6.46830       -3.29229
C         13.42019       -7.79070       -3.43322
N         13.63943       -8.34268       -2.02134
C         12.75179       -9.58441       -1.79802
C         11.81763       -9.57270       -3.03645
C         12.64592       -8.89706       -4.14599
C         11.28353      -10.95224       -3.46172
O         10.65703      -11.67324       -2.42226
C          9.31243      -11.26446       -2.11548
C          8.68532      -12.29772       -1.19206
C          9.39855      -12.45853        0.15534
C          8.72897      -13.49241        1.06657
C          9.46412      -13.71330        2.39247
C          8.78159      -14.73911        3.30331
C          9.53054      -14.99765        4.61459
C          8.82764      -16.00396        5.53153
C          9.59188      -16.29578        6.82663
C          8.87491      -17.28224        7.75429
C          9.65801      -17.58675        9.03337
C         13.65108      -10.81159       -1.61987
C         14.59175      -10.75957       -0.40208
C         13.89075      -10.74230        0.96262
C         14.86840      -10.80582        2.14210
C         14.17497      -10.79605        3.50831
C         15.14891      -10.85582        4.68990
C         14.44458      -10.85093        6.04824
H         23.22015        1.91689       -0.44569
H         22.65659        1.00787        0.97018
H         21.77945        2.45550        0.43889
H         22.01960       -0.16545       -1.17837
H         21.16209        1.27432       -1.71951
H         19.58297        1.07550        0.22359
H         20.44050       -0.36050        0.78000
H         19.86639       -1.54507       -1.36021
H         19.03745       -0.10368       -1.94428
H         17.41204       -0.25698       -0.02822
H         18.23222       -1.70437        0.55513
H         17.69052       -2.88800       -1.59444
H         16.90527       -1.43337       -2.20546
H         15.22602       -1.55064       -0.33036
H         15.99749       -3.01788        0.26947
H         15.49558       -4.17453       -1.90913
H         14.75272       -2.69859       -2.52540
H         13.02298       -2.79638       -0.69476
H         13.72828       -4.29329       -0.09374
H         12.60169       -3.91190       -2.92999
H         11.68055       -4.60792       -1.56195
H         12.71964       -5.92325       -4.25104
H         11.58797       -6.64478       -3.07052
H         14.41197       -7.59390       -3.85964
H         13.45267       -7.54962       -1.37889
H         14.62111       -8.60800       -1.87294
H         12.18700       -9.40304       -0.87530
H         10.95618       -8.92829       -2.79827
H         12.01847       -8.48891       -4.94904
H         13.33835       -9.61781       -4.60687
H         12.11802      -11.58067       -3.81053
H         10.59668      -10.81273       -4.31870
H          8.73598      -11.18098       -3.05582
H          9.31543      -10.26822       -1.62907
H          8.65678      -13.26579       -1.71754
H          7.63662      -12.00006       -1.02719
H          9.43195      -11.48184        0.67168
H         10.44551      -12.75414       -0.02156
H          8.65623      -14.45384        0.52924
H          7.68997      -13.18109        1.27120
H          9.55276      -12.75156        2.92859
H         10.49784      -14.04261        2.18366
H          8.66858      -15.69153        2.75653
H          7.75660      -14.39733        3.52982
H          9.66282      -14.04368        5.15531
H         10.54828      -15.36147        4.38674
H          8.67015      -16.94882        4.98230
H          7.81988      -15.62705        5.77942
H          9.76777      -15.35005        7.36955
H         10.59229      -16.69260        6.57813
H          8.68375      -18.22051        7.20671
H          7.88291      -16.87699        8.01566
H         10.63772      -18.03146        8.80320
H          9.11703      -18.29132        9.67974
H          9.83953      -16.67181        9.61690
H         14.23812      -10.97586       -2.53999
H         12.98075      -11.67690       -1.51952
H         15.28995       -9.90006       -0.46499
H         15.24711      -11.64259       -0.45733
H         13.19389      -11.59606        1.01678
H         13.26647       -9.83717        1.07001
H         15.57174       -9.95623        2.08323
H         15.48516      -11.71640        2.05152
H         13.47684      -11.64910        3.56905
H         13.55248       -9.88782        3.59731
H         15.84441      -10.00164        4.63068
H         15.77191      -11.76127        4.60008
H         13.84160       -9.94060        6.18218
H         15.16682      -10.89496        6.87424
H         13.76989      -11.71356        6.15032
