45

C          4.53866       -0.85658       -2.21370
C          4.33505       -0.31886       -0.79046
C          4.13846        1.21139       -0.72152
C          3.51015        1.80988        0.57352
C          4.01773        1.22600        1.90949
C          3.23278        0.01772        2.40810
N          1.75197        0.34693        2.49808
C          1.17042        0.72107        1.12266
C          1.96931        1.91914        0.60617
N          1.20012       -0.47912        0.26152
O          0.01043       -1.19683        0.65529
O          0.96186        0.00004       -1.05785
C          1.00182       -0.65714        3.33914
C         -0.36716       -0.09579        3.72331
C         -1.00727       -0.96021        4.83045
F         -0.20423       -1.09468        5.90728
F         -2.16218       -0.38527        5.23835
F         -1.28630       -2.19409        4.35081
O         -0.12739        1.23291        4.16538
C          5.49187        1.91565       -0.97602
O          5.38297        3.33704       -1.03367
H          4.61901       -1.95148       -2.21301
H          5.45096       -0.46875       -2.68493
H          3.69901       -0.58254       -2.87274
H          5.20205       -0.60673       -0.17051
H          3.46985       -0.83264       -0.34806
H          3.46740        1.50482       -1.54925
H          3.84514        2.85859        0.54944
H          3.97910        2.00845        2.68623
H          5.07538        0.93379        1.84317
H          3.54487       -0.27166        3.41949
H          3.31252       -0.85509        1.75094
H          1.65382        1.22744        3.03553
H          0.12488        1.01758        1.30045
H          1.69612        2.75203        1.27750
H          1.56964        2.18737       -0.37813
H          0.16767       -2.09874        0.32019
H          1.53865       -0.56261       -1.60646
H          1.60845       -0.78993        4.24436
H          0.92044       -1.60261        2.79940
H         -1.06611       -0.12957        2.87014
H         -0.96362        1.65202        4.43077
H          5.95865        1.52046       -1.89071
H          6.18609        1.69802       -0.14693
H          5.17380        3.60068       -1.94260
