49

C          2.99160       -3.52404       -6.43063
C          3.06564       -2.92288       -5.02558
C          4.16939       -3.54141       -4.15954
C          4.28808       -2.87989       -2.78128
C          5.46576       -3.36301       -1.94869
O          6.74584       -3.12088       -2.64339
C          7.26140       -1.89124       -2.53996
O          6.82852       -0.96196       -1.89780
C          8.56607       -1.75910       -3.33480
S          8.50388       -2.60326       -4.93991
C          7.95633       -1.30586       -6.26791
C          9.07838       -0.29850       -6.65875
C          8.58521        0.65293       -7.77311
C          9.67986        0.53061       -5.51474
C          7.59611       -2.19358       -7.48389
O          6.89443       -3.35017       -7.05274
C          6.69242       -0.68844       -5.65617
C         10.41111       -3.01770       -5.19588
O         11.14711       -2.75901       -4.30035
C         10.66811       -3.74647       -6.47011
H          2.18490       -3.07065       -7.02144
H          2.80776       -4.60762       -6.39495
H          3.93456       -3.36593       -6.97738
H          2.09374       -3.04308       -4.51972
H          3.22840       -1.83326       -5.09750
H          5.13246       -3.46919       -4.69348
H          3.98147       -4.62179       -4.03625
H          3.37956       -3.07548       -2.18762
H          4.34498       -1.78409       -2.88309
H          5.45953       -4.45128       -1.81162
H          5.50984       -2.86408       -0.97275
H          9.38579       -2.26597       -2.79935
H          8.81997       -0.70309       -3.43928
H          9.89488       -0.89711       -7.09836
H          7.80046        1.33055       -7.41073
H          8.20888        0.12989       -8.66048
H          9.42756        1.27637       -8.09855
H          8.91781        1.09962       -4.96344
H         10.37759        1.26501       -5.93675
H         10.25938       -0.07058       -4.80374
H          8.51116       -2.46147       -8.04315
H          6.97327       -1.57457       -8.14944
H          6.42671       -3.74354       -7.80631
H          6.89221       -0.07584       -4.76982
H          5.95574       -1.45987       -5.40138
H          6.23341       -0.03295       -6.40890
H          9.88633       -4.49866       -6.64401
H         11.65983       -4.21141       -6.42549
H         10.63964       -3.03587       -7.30991
