67

O          5.07786       -0.43992        0.89532
C          4.83219        0.95285        0.73138
C          3.31911        1.11421        0.54198
C          2.56896        0.55318        1.75968
N          1.15076        0.11126        1.46911
C          1.01260       -1.09037        0.54443
C          0.02153       -0.61029       -0.53887
O         -0.73838        0.39391        0.16324
C          0.17334        1.18573        0.84676
C         -0.49847        2.01371        1.92013
C         -1.40493        3.07394        1.27689
C         -2.09909        4.02180        2.26684
C         -3.59319        3.69678        2.65755
C         -3.96652        2.34776        3.39085
C         -3.43082        1.98509        4.83490
C         -3.68385        2.91411        6.08956
C         -5.14574        3.28272        6.57145
C         -6.18222        2.16701        7.00513
C         -5.79874        1.17988        8.17006
F         -5.33454        1.84912        9.23789
F         -6.89901        0.49787        8.52492
F         -4.86366        0.29819        7.76521
F         -7.28421        2.84688        7.40821
F         -6.50721        1.42161        5.91756
F         -4.96667        4.10840        7.63248
F         -5.74521        3.98723        5.57723
F         -3.05025        2.30138        7.12504
F         -3.05571        4.09370        5.85233
F         -3.92701        0.75432        5.10817
F         -2.06827        1.86512        4.74331
F         -5.31432        2.28499        3.42246
F         -3.51684        1.32545        2.58742
F         -4.07377        4.72722        3.38774
F         -4.28377        3.64646        1.47824
F         -1.36241        4.17133        3.41381
F         -2.17433        5.25867        1.68166
C         -0.92916       -1.66559       -1.07143
C         -0.23393       -2.75742       -1.88310
O         -1.24619       -3.66649       -2.26900
C         -0.76616       -4.75851       -3.02874
C         -1.93501       -5.70667       -3.28517
F         -2.46528       -6.17442       -2.13103
F         -2.92706       -5.11018       -3.98341
F         -1.49317       -6.76858       -4.00451
O          2.95480        2.45969        0.25201
H          6.03431       -0.59761        0.92170
H          5.33095        1.36449       -0.16118
H          5.16674        1.53313        1.61518
H          3.04877        0.53717       -0.35769
H          2.51215        1.31210        2.55239
H          3.09477       -0.32800        2.15124
H          0.72899       -0.14562        2.37062
H          0.59721       -1.92062        1.12773
H          1.99836       -1.37167        0.16053
H          0.57778       -0.12445       -1.36317
H          0.81079        1.78671        0.17681
H          0.26909        2.51162        2.53006
H         -1.07326        1.34343        2.57468
H         -2.16562        2.60562        0.64032
H         -0.80157        3.72803        0.63044
H         -1.67582       -1.17035       -1.70822
H         -1.47308       -2.12683       -0.23281
H          0.54057       -3.28112       -1.28327
H          0.27126       -2.32765       -2.77178
H          0.01388       -5.32518       -2.48825
H         -0.36503       -4.43841       -4.00737
H          3.46610        3.06606        0.81464
