63

O          4.94773       -0.71532        0.37301
C          3.88945       -0.99529       -0.54163
C          2.66291       -1.49497        0.23069
N          3.06837       -2.74610        1.11014
C          3.89507       -3.77309        0.36514
C          3.46910       -5.18540        0.77013
O          2.05858       -5.17184        0.55206
C          1.32063       -6.25799        1.13972
C         -0.14533       -5.90917        1.12135
C         -0.70957       -5.22900        0.03269
C         -2.06730       -4.90547        0.02958
C         -2.87931       -5.26703        1.10819
C         -2.32856       -5.96247        2.18688
C         -0.96776       -6.27990        2.19300
C          4.21716       -6.23283       -0.05153
C          3.66859       -2.50065        2.48773
C          2.60760       -2.44369        3.58243
O          1.70667       -3.52644        3.31826
C          0.52457       -3.57753        4.10089
C         -0.56845       -2.61525        3.61895
F         -0.28595       -1.31279        3.92321
F         -0.73092       -2.67429        2.27388
F         -1.74241       -2.92486        4.20477
C          2.05787       -0.41963        1.15880
C          1.61327        0.90768        0.47772
C          0.25781        1.35255        1.04698
C          2.66218        2.01765        0.64434
C          1.59668       -2.00771       -0.74628
H          5.65748       -0.24967       -0.09523
H          4.20583       -1.73513       -1.29677
H          3.57349       -0.09435       -1.09287
H          2.17185       -3.25199        1.29048
H          4.95526       -3.57377        0.55578
H          3.69922       -3.65643       -0.70536
H          3.66311       -5.35721        1.84869
H          1.66420       -6.42078        2.17706
H          1.51224       -7.18485        0.56922
H         -0.08065       -4.95234       -0.81414
H         -2.49587       -4.37476       -0.82160
H         -3.93960       -5.01315        1.10501
H         -2.95806       -6.25625        3.02737
H         -0.54405       -6.83288        3.03553
H          4.00530       -6.11399       -1.12306
H          3.92446       -7.24670        0.24740
H          5.30153       -6.14719        0.10541
H          4.28166       -1.59566        2.45305
H          4.33060       -3.35390        2.67579
H          2.07985       -1.48207        3.59956
H          3.10843       -2.57926        4.55743
H          0.71789       -3.37871        5.16767
H          0.12308       -4.59181        3.98728
H          1.18052       -0.87001        1.64285
H          2.77422       -0.15671        1.94805
H          1.47070        0.73331       -0.60226
H          0.31985        1.51549        2.13377
H         -0.52115        0.59868        0.86593
H         -0.07050        2.29538        0.58945
H          2.78495        2.27720        1.70688
H          2.35186        2.92893        0.11564
H          3.65145        1.73036        0.26324
H          1.95995       -2.80768       -1.40336
H          1.26167       -1.18598       -1.38983
H          0.72048       -2.38245       -0.20076
