52

O          9.49408       -4.33677       -5.64339
C          9.99564       -3.01777       -5.89509
C          8.87613       -2.03944       -5.53869
N          8.32847       -2.18798       -4.18285
C          9.26619       -1.91010       -3.10273
C          8.55027       -1.43577       -1.83059
C          7.53813       -2.46225       -1.29240
N          6.84742       -1.93151       -0.10356
C          7.36541       -1.97432        1.14427
N          7.42361       -0.86401        1.89528
C          7.54870       -0.86489        3.36177
O          7.91647       -2.14881        3.82722
C          8.70487       -2.80963        2.84975
N          7.86704       -3.11656        1.67831
C          7.22564       -4.43255        1.43887
C          6.02395       -4.82477        2.34375
C          4.70012       -4.11049        2.04634
N          4.72612       -2.70050        2.47511
O          5.87143       -6.23660        2.21437
C          9.42451       -4.00642        3.50179
C         10.49178       -3.61007        4.56249
F         11.30900       -2.65052        4.02595
F          9.90355       -3.10946        5.67606
F          8.56411       -4.88022        4.09294
F         10.10112       -4.67575        2.50853
O          9.48320       -1.10293       -0.79435
H         10.13438       -4.98387       -5.97465
H         10.26856       -2.88464       -6.95627
H         10.89874       -2.82166       -5.28680
H          8.04238       -2.18212       -6.24174
H          9.23947       -1.00761       -5.66511
H          7.97949       -3.14503       -4.10548
H          9.93353       -1.09213       -3.41502
H          9.91977       -2.77156       -2.83539
H          8.00639       -0.50617       -2.06954
H          8.05731       -3.39049       -1.01960
H          6.78080       -2.69286       -2.05394
H          6.26113       -1.11930       -0.28296
H          7.43147        0.03685        1.42633
H          6.58476       -0.62725        3.83445
H          8.30086       -0.10263        3.63152
H          9.50975       -2.14403        2.49078
H          7.99110       -5.20548        1.55743
H          6.89970       -4.45776        0.39135
H          6.29213       -4.65390        3.39715
H          3.90486       -4.70267        2.53381
H          4.50658       -4.13657        0.96030
H          4.70904       -2.66919        3.49750
H          3.86150       -2.24462        2.17793
H          5.32334       -6.43100        1.43591
H         11.09376       -4.49612        4.82332
H         10.27697       -1.65139       -0.91496
