38

C          4.29045       -1.91026        3.21932
C          3.90609       -0.44710        2.99233
C          4.33007        0.06324        1.60916
C          4.04849        1.53390        1.36509
O          4.83899        2.37369        2.31907
C          6.07529        2.67645        1.96639
O          6.68095        2.49214        0.94374
P          6.90043        3.58819        3.40011
C          6.37667        2.97572        5.03313
C          6.69200        1.48293        5.04361
O          7.20451        0.95276        4.06590
O          6.33864        0.90774        6.17790
C          6.60514       -0.54257        6.31551
C          8.00576       -0.79424        6.84974
C          8.23634       -2.28950        7.09871
C          8.67621        3.63680        3.12696
H          3.98013       -2.25474        4.21471
H          5.37805       -2.05418        3.13406
H          3.81421       -2.56931        2.47979
H          4.36758        0.17901        3.77260
H          2.81703       -0.32233        3.10809
H          3.79009       -0.49007        0.82217
H          5.39945       -0.13638        1.43302
H          3.01494        1.81665        1.59760
H          4.31028        1.85514        0.35010
H          6.42612        4.92113        3.32720
H          5.30089        3.16616        5.16055
H          6.90716        3.51655        5.83147
H          6.44266       -1.00965        5.33573
H          5.82938       -0.87200        7.01709
H          8.14143       -0.22761        7.78328
H          8.74426       -0.41682        6.12586
H          7.54595       -2.68280        7.85786
H          9.25778       -2.46373        7.45820
H          8.10177       -2.87818        6.18061
H          9.07345        2.61780        3.18970
H          9.14545        4.28780        3.87514
H          8.84951        4.03997        2.12041
