34

C          1.16709        0.26197        2.33839
C          2.55312        0.01891        1.73605
C          3.09204        1.25254        0.99923
C          4.50183        1.06314        0.45293
S          4.60870       -0.33713       -0.77831
C          5.88029        0.43378       -1.56471
N          6.14067        1.66141       -1.17473
C          5.22014        2.26283       -0.20637
I          3.84580        3.50254       -1.46034
C          5.93348        3.19487        0.78083
C          7.07278        2.53973        1.57424
C          7.69460        3.50291        2.59180
C          8.71529        2.80157        3.49832
N          8.07388        1.71626        4.25540
H          0.79758       -0.63856        2.84428
H          0.43448        0.53434        1.56520
H          1.19158        1.07428        3.07898
H          2.49819       -0.83390        1.03586
H          3.26002       -0.27821        2.52799
H          3.12887        2.10914        1.69382
H          2.41259        1.54415        0.18435
H          5.15930        0.71495        1.26937
H          6.43747       -0.03259       -2.37834
H          6.83911        2.23787       -1.64609
H          5.16734        3.59191        1.46402
H          6.30868        4.06626        0.22234
H          7.85820        2.18028        0.88673
H          6.72549        1.65722        2.13411
H          6.89614        3.93775        3.21817
H          8.18064        4.34911        2.08066
H          9.20625        3.56153        4.13294
H          9.50773        2.35472        2.87705
H          7.55296        2.09386        5.04865
H          8.77500        1.08937        4.64947
