67

C          2.66514        1.20414        2.27914
C          3.68233        0.49898        1.38004
C          3.20092        0.26413       -0.06107
N          2.85507        1.53552       -0.73834
N          1.52969        1.86452       -0.86857
C          1.52012        3.04657       -1.41074
N          2.80235        3.50056       -1.64197
C          3.65102        2.52566       -1.21567
N          4.98231        2.59455       -1.24959
C          5.71647        3.76760       -1.74736
C          7.14333        3.77035       -1.20133
C          7.85811        5.08147       -1.56744
S          9.19189        5.51709       -0.42510
C          8.27702        6.11346        0.96892
S          6.63663        6.29526        1.03080
N          9.11115        6.44239        2.03647
C         10.49793        6.23623        2.15070
N         10.95649        6.65559        3.29442
C          9.85481        7.16671        3.97842
C          8.71648        7.04509        3.23817
C          0.28324        3.85718       -1.71854
C          0.08181        4.20039       -3.24766
C          0.04663        3.02544       -4.30337
C         -1.03787        1.87536       -4.24073
C         -2.58788        2.19109       -4.27424
C         -3.25406        2.95791       -5.48643
C         -3.20037        2.38475       -6.96018
C         -3.78125        0.94791       -7.23794
F         -5.00569        0.81240       -6.70416
F         -3.85940        0.77323       -8.56631
F         -2.97249       -0.00135       -6.72934
F         -3.92009        3.25926       -7.70538
F         -1.91217        2.40657       -7.39195
F         -4.55831        3.09256       -5.14475
F         -2.69676        4.19796       -5.54342
F         -3.20654        0.99112       -4.14658
F         -2.86649        2.93181       -3.16818
F         -0.74204        1.04317       -5.26717
F         -0.82342        1.19888       -3.07632
F          0.00278        3.60397       -5.52092
F          1.25354        2.37879       -4.18431
F         -1.00760        4.97326       -3.37003
F          1.18492        4.95076       -3.59862
F         -0.80276        3.23496       -1.22891
F          0.41601        5.07090       -1.08922
C          4.21094       -0.56406       -0.88928
O          4.00843       -0.48278       -2.28905
H          3.04849        1.27658        3.30421
H          1.71227        0.65848        2.31494
H          2.45121        2.22680        1.93815
H          3.92795       -0.49167        1.79429
H          4.63187        1.06013        1.36309
H          2.23348       -0.25814       -0.04896
H          3.05982        4.36428       -2.11219
H          5.50238        1.73846       -1.08708
H          5.21204        4.67101       -1.36779
H          5.70209        3.78647       -2.85049
H          7.71207        2.90903       -1.58429
H          7.08582        3.68183       -0.10758
H          7.15849        5.93012       -1.57008
H          8.34938        5.02750       -2.54894
H         11.08021        5.76342        1.36511
H          9.96114        7.59211        4.97124
H          7.68424        7.31933        3.41115
H          4.17273       -1.59888       -0.51321
H          5.24272       -0.21928       -0.69974
H          3.34214       -1.13168       -2.56454
