44

C          0.77407        0.64122        1.31896
C          2.30361        0.61068        1.32646
C          2.92837        1.84142        0.66131
C          4.46052        1.81440        0.65344
C          5.07062        3.04720       -0.02238
C          6.59781        3.00114       -0.04257
N          7.14314        4.20348       -0.69188
C          8.35996        4.31322       -1.22564
N          9.28724        3.36197       -1.03577
N          8.71887        5.40953       -1.95715
C         10.11704        5.59447       -2.33526
O         10.51054        4.54490       -3.19602
C         11.80528        4.76090       -3.82041
C         12.12012        3.56303       -4.69749
C         13.46155        3.70778       -5.42710
C         13.78482        2.49188       -6.29775
I          7.28346        6.48427       -2.99247
H          0.35476       -0.25138        1.80128
H          0.38153        0.67998        0.29227
H          0.38971        1.52105        1.85526
H          2.65831       -0.29794        0.81187
H          2.66792        0.53547        2.36456
H          2.58128        2.75215        1.17955
H          2.56015        1.92098       -0.37633
H          4.80633        0.90362        0.13496
H          4.83196        1.74065        1.68980
H          4.74298        3.95693        0.50977
H          4.69988        3.12758       -1.05717
H          6.94129        2.12002       -0.60816
H          6.98886        2.92285        0.98635
H          6.54132        5.02370       -0.73996
H          9.14767        2.63170       -0.34853
H         10.04336        3.29244       -1.72131
H         10.71739        5.59225       -1.40377
H         10.21579        6.57913       -2.81795
H         12.57276        4.89339       -3.03612
H         11.75598        5.69118       -4.41400
H         11.30712        3.43360       -5.42938
H         12.13599        2.65373       -4.07386
H         14.26724        3.85944       -4.69022
H         13.44103        4.61528       -6.05234
H         13.85271        1.57516       -5.69436
H         14.74297        2.62052       -6.81717
H         13.01037        2.33207       -7.06181
