76

C          0.25226       -0.02086       -0.11405
C          1.76455       -0.22663       -0.22641
C          2.38183       -0.89552        1.00680
C          3.89043       -1.12709        0.88235
C          4.51376       -1.81143        2.10304
C          6.01777       -2.05599        1.94979
C          6.65352       -2.75769        3.15275
C          8.16201       -2.97109        2.98462
C          8.76905       -3.71161        4.18433
C         10.28866       -3.77168        4.34618
N         11.09049       -4.75345        3.41168
C         10.45136       -5.43055        2.22208
C          9.63036       -6.66005        2.59116
C          9.07647       -7.35048        1.32454
C          8.24075       -8.49421        1.65822
C          7.54494       -9.43347        1.96550
C         12.31347       -3.90386        2.98646
O         12.43441       -2.93628        3.95515
C         11.08300       -2.45455        4.17269
C         11.07248       -1.49269        5.35255
C          9.80884       -0.62524        5.43857
C          9.89962        0.46915        6.50579
N          8.65845        1.23056        6.52900
C          8.67184        2.35152        7.48545
C          7.33394        3.04758        7.54380
C          7.15675        4.34107        7.04034
C          5.92484        4.99571        7.11050
C          4.83421        4.34736        7.69314
C          4.97934        3.05381        8.19656
C          6.21846        2.41219        8.12101
O          6.40076        1.12898        8.60067
H         -0.15549        0.46068       -1.01309
H         -0.00221        0.61488        0.74702
H         -0.27282       -0.97886        0.01653
H          2.25830        0.74525       -0.39617
H          1.98796       -0.83727       -1.11780
H          1.87802       -1.86153        1.18778
H          2.17769       -0.27744        1.89881
H          4.39605       -0.16075        0.70974
H          4.09112       -1.73673       -0.01645
H          4.00328       -2.77346        2.28461
H          4.33308       -1.19714        3.00222
H          6.52835       -1.09193        1.77991
H          6.19696       -2.65813        1.04113
H          6.15802       -3.73008        3.31959
H          6.47556       -2.16330        4.06576
H          8.64247       -1.98907        2.85650
H          8.33476       -3.51978        2.04464
H          8.34597       -4.72319        4.26765
H          8.42931       -3.20687        5.10299
H         10.51341       -4.15823        5.35080
H         11.43548       -5.49998        4.02617
H         11.28762       -5.72051        1.56672
H          9.86283       -4.67351        1.69179
H          8.78742       -6.39617        3.24236
H         10.25395       -7.37959        3.14709
H          9.90799       -7.67493        0.67604
H          8.48688       -6.62771        0.73476
H          6.92331      -10.26853        2.21443
H         12.05644       -3.50399        1.98830
H         13.21185       -4.53177        2.94482
H         10.75671       -1.93190        3.25431
H         11.95089       -0.84133        5.22216
H         11.23588       -2.05271        6.28767
H          8.92558       -1.24619        5.66125
H          9.61110       -0.14255        4.46844
H         10.72373        1.15930        6.25535
H         10.16260        0.01546        7.48904
H          7.88868        0.61023        6.79114
H          9.43697        3.07097        7.15585
H          8.95789        2.01973        8.50653
H          8.01354        4.84584        6.58932
H          5.81792        6.00663        6.71794
H          3.86602        4.84453        7.75835
H          4.12878        2.53854        8.65145
H          5.57991        0.84363        9.03329
