51

C          3.20780        2.51062        1.08677
C          4.58168        2.81644        0.53517
O          4.58822        2.72256       -0.95575
C          4.73119        1.51819       -1.45532
O          4.90423        0.45382       -0.92213
N          4.68299        1.56576       -2.96333
C          3.74298        2.55025       -3.62251
C          4.53639        3.02820       -4.85374
O          5.87918        3.09606       -4.31127
C          6.13970        1.89255       -3.71926
C          7.35011        1.90957       -2.81401
C          7.95008        0.51913       -2.54937
C          9.22672        0.56758       -1.69517
C          8.95214        0.87124       -0.21858
S         10.50583        1.07966        0.67484
O         11.21564       -0.18093        0.71359
O         11.12541        2.29063        0.19879
O          9.93758        1.38056        2.17034
C          4.12699        4.35354       -5.50253
C          4.26841        5.56872       -4.57966
O          3.34488        5.45200       -3.48388
C          4.91390        4.55532       -6.81886
C          4.34769        5.64243       -7.73578
H          3.23062        2.66122        2.17518
H          2.91737        1.46907        0.90180
H          2.44934        3.18508        0.66966
H          5.34966        2.12795        0.90869
H          4.88698        3.85379        0.70742
H          4.45162        0.59839       -3.21957
H          3.56818        3.38181       -2.93433
H          2.80176        2.04596       -3.86925
H          4.52407        2.23890       -5.63112
H          6.16124        1.05744       -4.44598
H          7.11949        2.45782       -1.88775
H          8.08975        2.53199       -3.34376
H          8.20177        0.06068       -3.51857
H          7.20957       -0.14194       -2.07183
H          9.91739        1.32205       -2.10313
H          9.74107       -0.40076       -1.76400
H          8.40647        0.05512        0.27487
H          8.41130        1.81548       -0.06341
H         10.22196        0.63872        2.73914
H          3.05573        4.24734       -5.75180
H          4.05065        6.47493       -5.16401
H          5.30666        5.64225       -4.21098
H          3.25310        6.32183       -3.06636
H          4.91743        3.59882       -7.36602
H          5.96771        4.77218       -6.58015
H          3.29399        5.44777       -7.98258
H          4.90785        5.67400       -8.67888
H          4.41012        6.64467       -7.29186
