71

C          0.69445       -1.97714       -0.61479
C          1.96201       -1.12059       -0.58787
C          3.12120       -1.77263       -1.35063
C          4.38588       -0.93205       -1.31997
O          5.40698       -1.61749       -2.07775
C          6.62331       -0.91964       -2.11676
N          7.52714       -1.64321       -3.01448
C          7.19746       -1.65784       -4.44788
O          6.48640       -2.83203       -4.79168
C          7.24123       -4.01294       -4.60072
N          8.17869       -3.81403       -3.46344
C          8.14789       -2.78276       -2.60338
N          8.75677       -2.88774       -1.40944
C          9.50278       -1.82830       -0.69396
C          9.41529       -1.99950        0.82184
C         10.04189       -3.30228        1.33623
C         10.09615       -3.39102        2.86574
C         10.73644       -4.68812        3.36997
C         10.83984       -4.76880        4.89588
C         11.48902       -6.06409        5.39421
C         11.60555       -6.13137        6.91827
C          7.99880       -4.47178       -5.84820
C          8.53910       -5.90660       -5.74064
C          9.24061       -6.39460       -7.01978
C         10.64437       -5.80711       -7.19776
S         11.29328       -6.22159       -8.82978
O         11.46553       -7.65558       -8.92984
O         10.54022       -5.47422       -9.80454
O         12.77004       -5.54485       -8.73600
H         -0.12527       -1.49232       -0.06934
H          0.86799       -2.95934       -0.15150
H          0.35306       -2.15060       -1.64539
H          2.26348       -0.93949        0.45716
H          1.74789       -0.13016       -1.02205
H          2.83195       -1.93914       -2.40049
H          3.34134       -2.76316       -0.92072
H          4.73740       -0.78221       -0.28104
H          4.20935        0.06579       -1.76470
H          7.07896       -0.84494       -1.11470
H          6.50127        0.10256       -2.52207
H          8.13574       -1.56751       -5.02043
H          6.53925       -0.81171       -4.66667
H          6.50433       -4.78050       -4.30693
H          8.85502       -4.55565       -3.30340
H          8.98494       -3.83499       -1.11629
H          9.11568       -0.85519       -1.01363
H         10.55716       -1.88079       -1.01579
H          8.36452       -1.92569        1.14570
H          9.94259       -1.14338        1.27108
H         11.06645       -3.39495        0.93418
H          9.47856       -4.17768        0.96149
H          9.07597       -3.29839        3.27553
H         10.66178       -2.52697        3.25397
H         11.74581       -4.78779        2.93333
H         10.15695       -5.55138        2.99747
H          9.83272       -4.67215        5.33772
H         11.41873       -3.90559        5.26789
H         12.49093       -6.16240        4.94318
H         10.90566       -6.92613        5.02890
H         12.21107       -5.29992        7.30791
H         12.07873       -7.06760        7.24310
H         10.61697       -6.07423        7.39703
H          8.79990       -3.75144       -6.07770
H          7.27432       -4.42278       -6.67513
H          7.69623       -6.58358       -5.52818
H          9.23915       -6.01219       -4.89072
H          8.61973       -6.13998       -7.89265
H          9.31933       -7.49027       -6.99765
H         11.35428       -6.21190       -6.46256
H         10.66480       -4.70916       -7.15433
H         13.42072       -6.27305       -8.76434
