55

O          1.28157       -0.19431        0.13965
C          2.65373       -0.13191       -0.23444
C          2.98837        1.34736       -0.37262
O          4.33862        1.43403       -0.84424
C          4.80706        2.74788       -1.00751
C          6.28503        2.61386       -1.38912
C          6.92914        3.82029       -2.06692
N          6.19558        4.14063       -3.41208
C          6.41341        5.60999       -3.63486
C          6.69088        6.16709       -2.21372
O          6.66894        4.99123       -1.34890
C          7.98370        6.97673       -2.15355
C          8.32858        7.49657       -0.75333
C          9.71671        8.14312       -0.75989
S         10.09631        8.77197        0.89891
C         11.66784        9.54233        0.63143
S         12.38851        9.74358       -0.82988
N         12.21822        9.99952        1.83516
C         11.88696        9.60847        3.14058
N         12.61502       10.22515        4.03019
C         13.45739       11.06573        3.30859
C         13.24522       10.93883        1.96558
C          8.40560        3.55971       -2.36106
C          9.35722        3.94483       -1.41114
C         10.70155        3.65346       -1.65488
N         11.13694        3.01984       -2.75342
C         10.21976        2.63472       -3.64789
C          8.84870        2.87139       -3.49533
H          1.04741       -1.11830        0.31332
H          2.84209       -0.63765       -1.19951
H          3.31177       -0.58813        0.52656
H          2.88306        1.86033        0.60012
H          2.29509        1.82274       -1.09194
H          4.68472        3.35128       -0.08980
H          4.20941        3.27397       -1.79691
H          6.39935        1.73930       -2.04935
H          6.88342        2.39037       -0.49520
H          5.19811        3.91874       -3.27191
H          6.55505        3.57012       -4.18737
H          5.52863        6.04300       -4.11261
H          7.28097        5.72425       -4.29513
H          5.84719        6.77604       -1.85788
H          7.86366        7.82735       -2.84684
H          8.81450        6.37244       -2.55028
H          8.29970        6.66654       -0.03060
H          7.56881        8.22359       -0.42443
H          9.77635        8.98685       -1.46203
H         10.49597        7.42117       -1.04695
H         11.14109        8.84434        3.33987
H         14.16866       11.71299        3.81212
H         13.68586       11.40528        1.09402
H          9.05862        4.46244       -0.49990
H         11.46704        3.94742       -0.93223
H         10.59161        2.10543       -4.52893
H          8.17085        2.47897       -4.26091
