63

C          5.68046        2.44504        4.78315
O          5.43688        2.44678        3.38373
C          6.22903        1.49701        2.69463
C          5.90092        1.54501        1.21856
O          6.38122        2.77153        0.66546
C          6.10565        2.90134       -0.71772
C          6.59430        4.28102       -1.14593
C          8.08107        4.49375       -0.98447
N          8.79011        3.36732       -0.90804
N         10.09359        3.49878       -0.76345
C         10.75353        4.64792       -0.60493
C         10.06483        5.86116       -0.66165
C          8.68158        5.79461       -0.93886
C          7.80637        7.00337       -1.18101
C          8.30362        8.13300       -2.12138
C          8.97984        7.68804       -3.42588
C          8.07842        6.86562       -4.37374
S          8.94641        5.39377       -4.93856
O         10.10257        5.77343       -5.71912
O          9.07690        4.49503       -3.81012
O          7.85055        4.71779       -5.92095
C         10.84990        7.11712       -0.41674
C         10.53144        7.81265        0.92824
C         11.32814        7.22469        2.10977
N         11.26087        8.16913        3.21777
C         12.32707        8.05124        4.21846
C         12.13622        9.09520        5.30439
O         10.87228        8.82656        5.92519
O         10.85659        9.17826        0.77007
H          5.01967        3.20042        5.22411
H          6.73089        2.70564        5.01288
H          5.45590        1.46128        5.23472
H          6.02961        0.47158        3.06676
H          7.30900        1.70224        2.84586
H          4.80675        1.46941        1.07602
H          6.37676        0.68400        0.71093
H          5.01878        2.83515       -0.91278
H          6.60214        2.10304       -1.30046
H          6.05212        5.03474       -0.55781
H          6.33245        4.44544       -2.20568
H         10.59812        2.61008       -0.76351
H         11.82925        4.57655       -0.44798
H          7.57466        7.45988       -0.20295
H          6.84147        6.64490       -1.55496
H          8.98079        8.81238       -1.58714
H          7.41680        8.74180       -2.35515
H          9.89052        7.11400       -3.19703
H          9.33126        8.57916       -3.96132
H          7.79025        7.42755       -5.27086
H          7.16178        6.49476       -3.89509
H          8.13758        4.87551       -6.84211
H         10.65170        7.85694       -1.19992
H         11.92695        6.90111       -0.46449
H          9.44678        7.70008        1.14513
H         12.38540        7.13987        1.80847
H         10.96772        6.20336        2.35458
H         10.36154        8.11610        3.70193
H         13.29611        8.21967        3.72392
H         12.35784        7.04690        4.68620
H         12.14822       10.10455        4.85632
H         12.96347        9.02108        6.03147
H         10.68961        9.51947        6.57705
H         11.08349        9.46368        1.68850
