93

C          0.63971        0.12577        0.54030
C          2.16846        0.08602        0.47779
C          2.72039       -1.21775       -0.10972
C          4.25032       -1.26840       -0.15988
C          4.80982       -2.56749       -0.74875
C          6.34066       -2.60870       -0.78118
C          6.91820       -3.89683       -1.37618
C          8.44964       -3.91241       -1.40942
C          9.04762       -5.18185       -2.02362
C         10.57745       -5.15311       -2.09825
C         11.19010       -6.39366       -2.75520
C         12.71226       -6.30724       -2.90422
C         13.32674       -7.50837       -3.62965
C         14.83272       -7.35472       -3.87039
C         15.42841       -8.51719       -4.67754
C         16.90548       -8.29101       -4.97824
N         17.50550       -9.40610       -5.81846
C         17.19593       -9.23991       -7.28766
O         17.41863      -10.48910       -7.84296
C         17.01007      -10.60426       -9.23519
C         17.36996      -11.99758       -9.71554
C         16.91957      -12.25612      -11.15962
C         17.35101      -13.63486      -11.67383
C         16.87086      -13.93326      -13.09775
C         17.35571      -15.28432      -13.63411
C         16.85535      -15.59727      -15.04912
C         17.37298      -16.93087      -15.59430
C         18.99398       -9.62216       -5.57672
C         19.25478      -10.41048       -4.29926
C         20.75563      -10.66475       -4.08621
C         21.03730      -11.47387       -2.81790
H          0.27750        1.07134        0.96704
H          0.24368       -0.69177        1.16107
H          0.19597        0.02282       -0.46142
H          2.58241        0.22974        1.49045
H          2.53613        0.93717       -0.12035
H          2.31540       -1.35819       -1.12779
H          2.34543       -2.07118        0.48276
H          4.65193       -1.12953        0.85960
H          4.62447       -0.41186       -0.74841
H          4.41819       -2.70327       -1.77248
H          4.43239       -3.42622       -0.16587
H          6.72938       -2.47582        0.24397
H          6.71488       -1.74403       -1.35766
H          6.52974       -4.03215       -2.40120
H          6.55345       -4.76463       -0.79881
H          8.83830       -3.78514       -0.38363
H          8.80723       -3.03448       -1.97636
H          8.63763       -5.32266       -3.03951
H          8.72203       -6.06239       -1.44243
H         10.99299       -5.03244       -1.08242
H         10.89280       -4.25605       -2.66016
H         10.73749       -6.53605       -3.75255
H         10.92455       -7.29249       -2.17188
H         13.17652       -6.20068       -1.90850
H         12.96669       -5.38541       -3.45643
H         12.81872       -7.64255       -4.60081
H         13.13465       -8.43081       -3.05516
H         15.35908       -7.26648       -2.90506
H         15.01719       -6.40923       -4.40877
H         14.85605       -8.63085       -5.61290
H         15.30980       -9.46013       -4.11578
H         17.49165       -8.24681       -4.05189
H         17.08074       -7.35645       -5.53046
H         17.03798      -10.28789       -5.55331
H         17.86652       -8.44917       -7.67564
H         16.14508       -8.91020       -7.37496
H         17.52935       -9.82934       -9.82676
H         15.92222      -10.42005       -9.29918
H         16.90681      -12.73585       -9.04124
H         18.46063      -12.13070       -9.63287
H         17.33026      -11.47604      -11.82355
H         15.82155      -12.16727      -11.22491
H         16.97328      -14.41434      -10.98948
H         18.45201      -13.70654      -11.63600
H         17.21146      -13.13021      -13.77461
H         15.76739      -13.90296      -13.12448
H         17.03528      -16.08848      -12.94820
H         18.46012      -15.30431      -13.62562
H         17.15465      -14.78080      -15.72796
H         15.75212      -15.60069      -15.05019
H         18.47199      -16.94202      -15.64570
H         16.99247      -17.12631      -16.60592
H         17.06437      -17.77181      -14.95549
H         19.45281       -8.62345       -5.55903
H         19.36425      -10.16841       -6.45332
H         18.72817      -11.37945       -4.35993
H         18.84945       -9.88279       -3.42040
H         21.28388       -9.69900       -4.03474
H         21.16170      -11.19271       -4.96398
H         20.68246      -10.94837       -1.91951
H         22.11401      -11.64628       -2.69673
H         20.54536      -12.45668       -2.84948
