106

C          1.21309        2.64177       -1.05775
C          2.45268        2.10325       -0.33930
C          2.99319        0.81469       -0.97624
C          4.21115        0.27807       -0.24707
O          4.63889       -0.94220       -0.89602
C          5.72527       -1.56856       -0.25072
C          6.00842       -2.80849       -1.03862
N          5.32631       -3.09875       -2.19071
C          5.79554       -4.27393       -2.67518
N          6.74723       -4.64467       -1.80924
N          6.88734       -3.75128       -0.78235
C          7.53830       -5.88630       -1.78688
C          6.95917       -6.90517       -0.80158
C          7.81053       -8.17736       -0.72394
C          7.29689       -9.16191        0.33341
C          8.13487      -10.44055        0.43245
C          7.65548      -11.39471        1.53160
C          8.47911      -12.68311        1.62678
C          8.01003      -13.62814        2.73817
C          8.82188      -14.92451        2.82492
C          8.36169      -15.86531        3.94441
C          9.14916      -17.17712        3.99577
C          5.37824       -4.93692       -3.93532
C          6.17697       -4.41572       -5.14879
O          5.66257       -5.07231       -6.27756
C          6.29261       -4.64887       -7.49358
C          5.63122       -5.38771       -8.64879
O          6.27916       -4.90260       -9.81376
C          5.84469       -5.35863      -11.04200
C          6.49200       -4.80473      -12.15422
C          6.11975       -5.19037      -13.43482
C          5.09318       -6.12768      -13.66504
C          4.48007       -6.67769      -12.53511
C          4.83821       -6.30609      -11.23193
C          4.71167       -6.52512      -15.10078
C          4.41423       -5.27351      -15.98880
C          3.17787       -4.34027      -15.79860
C          1.88165       -4.97179      -16.34897
C          2.95085       -3.90663      -14.33791
C          3.47161       -3.07662      -16.63677
C          5.94576       -7.22110      -15.73460
C          3.55751       -7.54322      -15.13111
H          0.84833        3.56082       -0.58142
H          0.39161        1.91073       -1.04235
H          1.43067        2.87722       -2.10962
H          2.21068        1.91339        0.71943
H          3.24271        2.87206       -0.33958
H          3.25729        1.00205       -2.03006
H          2.20788        0.04109       -0.97471
H          3.97428        0.05514        0.80961
H          5.04388        1.00494       -0.26448
H          5.49386       -1.84280        0.79690
H          6.63028       -0.92943       -0.23180
H          4.58765       -2.50706       -2.57013
H          8.55674       -5.58948       -1.50457
H          7.56976       -6.27509       -2.81323
H          5.92807       -7.15587       -1.10218
H          6.89625       -6.43468        0.19189
H          8.85396       -7.90515       -0.49008
H          7.83544       -8.67133       -1.71046
H          6.24925       -9.42771        0.10924
H          7.27954       -8.65878        1.31569
H          9.18995      -10.17260        0.61677
H          8.12088      -10.96359       -0.53967
H          6.59572      -11.65111        1.35660
H          7.68297      -10.87158        2.50378
H          9.54048      -12.42590        1.78992
H          8.44195      -13.21225        0.65830
H          6.94575      -13.87610        2.57935
H          8.05524      -13.10200        3.70801
H          9.88883      -14.67935        2.97176
H          8.76644      -15.45468        1.85772
H          7.28810      -16.08452        3.81520
H          8.44821      -15.34415        4.91301
H          9.03880      -17.74544        3.06009
H          8.80617      -17.82110        4.81691
H         10.22383      -16.99337        4.14494
H          4.30769       -4.75415       -4.10706
H          5.50762       -6.02426       -3.85164
H          7.25815       -4.62402       -5.01211
H          6.06286       -3.31536       -5.23445
H          7.37397       -4.87517       -7.46672
H          6.17171       -3.55870       -7.62869
H          4.54833       -5.17057       -8.67004
H          5.76611       -6.47848       -8.53468
H          7.28339       -4.07176      -11.99446
H          6.64191       -4.73539      -14.27761
H          3.68565       -7.41409      -12.64903
H          4.32204       -6.76474      -10.38895
H          4.38176       -5.63170      -17.03220
H          5.30930       -4.63270      -15.93780
H          1.53258       -5.81781      -15.74486
H          2.01984       -5.32977      -17.38009
H          1.07285       -4.22601      -16.36194
H          2.68171       -4.75099      -13.68982
H          2.12912       -3.17607      -14.29062
H          3.84519       -3.43408      -13.90832
H          3.65115       -3.32818      -17.69304
H          4.36049       -2.54839      -16.26105
H          2.62304       -2.37761      -16.60056
H          6.80263       -6.53794      -15.81459
H          5.70766       -7.58112      -16.74602
H          6.25795       -8.08191      -15.12676
H          2.65990       -7.19115      -14.60744
H          3.86086       -8.49654      -14.67448
H          3.27308       -7.75460      -16.17080
