103

C          1.80859        9.73421       -1.63055
C          3.24529        9.98331       -1.16424
C          3.76605        8.90837       -0.20388
C          5.20043        9.14889        0.27803
C          5.70148        8.08670        1.26248
C          7.13085        8.32687        1.76035
C          7.59817        7.29780        2.79487
C          9.02246        7.53510        3.30920
C          9.46603        6.51248        4.36029
C         10.89479        6.72096        4.87435
C         11.33210        5.66212        5.89206
C         12.78462        5.80863        6.35498
C         13.24266        4.69182        7.30464
C         14.75605        4.66383        7.55696
C         15.29975        5.85479        8.36213
C         16.83357        5.87722        8.34150
C         17.62321        7.02479        9.01976
C         17.14315        7.30295       10.46057
C         16.13470        8.42826       10.29600
N         16.80192        9.35894        9.30299
C         17.72436        8.47080        8.40592
C         17.62512        8.74809        6.86700
C         16.23731        8.43548        6.18447
C         14.99774        9.15479        6.75367
C         16.25817        8.66948        4.66257
C         18.11537       10.18562        6.56995
O         17.27626       11.17887        7.18072
C         18.73013        7.85335        6.23882
C         17.51255       10.47237       10.00699
C         16.46619       11.51866       10.39550
O         15.32817       11.47980        9.96377
O         16.99422       12.42434       11.21191
C         16.11051       13.51015       11.68450
C         15.50727       13.16048       13.03534
C         14.66221       14.31447       13.59429
C         14.10320       14.02229       14.99271
C         13.25313       15.16575       15.55182
H          1.46444       10.51961       -2.31718
H          1.11143        9.70879       -0.77967
H          1.72043        8.77184       -2.15617
H          3.30759       10.96904       -0.67261
H          3.91295       10.04172       -2.04066
H          3.70627        7.92137       -0.69573
H          3.09398        8.84817        0.67066
H          5.26229       10.14341        0.75457
H          5.87730        9.19042       -0.59368
H          5.64241        7.09125        0.78808
H          5.01813        8.04668        2.12915
H          7.19813        9.33866        2.19827
H          7.82372        8.32423        0.90040
H          7.53353        6.28543        2.35876
H          6.89890        7.30095        3.64955
H          9.09242        8.55233        3.73380
H          9.72633        7.51387        2.45832
H          9.38321        5.49706        3.93470
H          8.76480        6.53802        5.21268
H         10.98128        7.72654        5.32428
H         11.59328        6.71070        4.01833
H         11.19960        4.66054        5.44736
H         10.66080        5.69240        6.76775
H         12.91054        6.79479        6.83440
H         13.44510        5.81482        5.46799
H         12.94876        3.72169        6.87280
H         12.70026        4.76843        8.26290
H         15.27217        4.63021        6.58082
H         15.02978        3.72953        8.07334
H         14.92136        5.78424        9.39595
H         14.88896        6.78461        7.94602
H         17.16908        5.77261        7.30037
H         17.18871        4.95790        8.83667
H         18.66146        6.66593        9.05743
H         17.97602        7.62016       11.10636
H         16.69047        6.42169       10.93030
H         15.89084        8.98485       11.20700
H         15.20099        8.08076        9.83998
H         16.07730        9.82683        8.73109
H         18.73076        8.81961        8.68117
H         16.07725        7.35695        6.32303
H         15.09307       10.24646        6.71847
H         14.73759        8.85860        7.78080
H         14.11973        8.88184        6.15300
H         16.30306        9.73775        4.40602
H         15.32783        8.27907        4.22932
H         17.08660        8.15894        4.15707
H         18.14047       10.32462        5.47968
H         19.15423       10.29173        6.93726
H         17.35811       12.00833        6.68764
H         18.41795        6.80716        6.15527
H         19.65681        7.88541        6.82902
H         18.98236        8.20004        5.22972
H         18.22924       10.93350        9.31945
H         18.04371       10.08049       10.88259
H         15.34406       13.68542       10.91878
H         16.77881       14.37779       11.74680
H         16.31974       12.91734       13.73868
H         14.88269       12.25810       12.93368
H         13.82919       14.53092       12.90388
H         15.27291       15.23297       13.63375
H         14.94109       13.81456       15.67911
H         13.50297       13.09768       14.95778
H         13.83370       16.09687       15.62820
H         12.87718       14.92744       16.55548
H         12.38260       15.36948       14.91106
