53

C          3.11667       -0.10467        4.57122
O          4.53364       -0.02794        4.72930
C          4.91242        0.13417        6.09002
C          6.41952        0.04250        6.19182
O          6.99189        1.05961        5.35229
C          8.41503        1.13405        5.37924
C          8.89347        1.75572        4.07081
N          8.37787        3.11442        3.79768
C          7.25327        3.29893        3.07507
N          6.97589        4.47908        2.46000
I          8.26385        5.58467        1.27311
N          6.34769        2.31474        3.00872
C          9.12017        4.22188        4.38888
O         10.37039        4.28421        3.74235
C         11.34661        5.11448        4.30030
C         11.04877        6.02941        5.31837
C         12.04611        6.85827        5.85073
C         11.72748        7.84348        6.94627
C         13.34029        6.74853        5.32590
C         13.61983        5.83720        4.30813
C         12.64260        4.99042        3.76638
C         12.97664        4.00722        2.65208
C         13.26948        4.74402        1.33119
C         14.14379        3.07993        3.03416
H          2.92066       -0.26031        3.50382
H          2.62196        0.82577        4.90346
H          2.69759       -0.95242        5.14033
H          4.47144       -0.66056        6.72138
H          4.55791        1.10955        6.47774
H          6.77219       -0.94763        5.85424
H          6.72680        0.19366        7.24125
H          8.86210        0.12678        5.45464
H          8.74873        1.71718        6.25709
H          8.60908        1.11269        3.22747
H          9.98905        1.83510        4.07845
H          6.01728        4.57399        2.13391
H          6.29680        1.61954        3.77601
H          5.64634        2.30953        2.27746
H          9.25134        4.01588        5.46698
H          8.53332        5.14648        4.27409
H         10.03521        6.12352        5.71088
H         10.69413        7.73658        7.30059
H         11.85797        8.87858        6.59766
H         12.39697        7.70820        7.80749
H         14.13813        7.38200        5.71730
H         14.63895        5.77619        3.92165
H         12.09100        3.37626        2.48774
H         14.15280        5.39198        1.42656
H         12.42366        5.37770        1.02931
H         13.46612        4.02560        0.52253
H         15.07734        3.64230        3.17781
H         14.32358        2.34437        2.23725
H         13.93699        2.53430        3.96524
