53

C          4.19904        6.81994        3.97734
C          4.07664        6.72642        2.45303
C          5.40881        6.52346        1.70995
C          6.20210        5.25309        2.06215
C          5.45123        3.94897        1.76620
C          6.27506        2.67836        1.97063
N          6.67855        2.45308        3.39193
C          5.71481        2.53697        4.35630
N          5.59929        3.46162        5.32341
N          4.50828        3.28166        6.10982
C          3.92586        2.22300        5.60088
N          4.62724        1.72961        4.51888
C          4.35354        0.50068        3.78057
C          3.92847       -0.62257        4.76985
O          4.12437       -0.49645        5.97482
N          3.37418       -1.69597        4.17256
C          2.84902       -2.84055        4.93344
C          1.37822       -2.66583        5.33366
C          0.40553       -2.55618        4.15350
C         -1.05123       -2.38748        4.59302
C          8.07603        2.30132        3.70674
O          8.89040        2.37016        2.81483
C          8.42965        2.03053        5.14999
H          3.23694        7.07855        4.43871
H          4.92645        7.58951        4.27550
H          4.51760        5.86767        4.42803
H          3.62145        7.65428        2.07568
H          3.36412        5.92762        2.18706
H          6.05732        7.39367        1.89932
H          5.21326        6.52505        0.62523
H          6.50489        5.28884        3.12350
H          7.14479        5.25512        1.49256
H          5.12972        3.94512        0.71205
H          4.51613        3.89470        2.35152
H          7.23087        2.72152        1.43148
H          5.73116        1.79370        1.60669
H          6.21433        4.25717        5.47864
H          3.01469        1.78181        5.98607
H          5.28012        0.20889        3.26808
H          3.57943        0.69328        3.02354
H          3.19763       -1.66699        3.17330
H          3.48076       -2.94986        5.82357
H          2.98407       -3.73421        4.30773
H          1.28974       -1.78038        5.98447
H          1.10466       -3.53081        5.95915
H          0.49950       -3.45392        3.51912
H          0.68605       -1.69947        3.51529
H         -1.38564       -3.24073        5.20000
H         -1.72284       -2.31243        3.72781
H         -1.18425       -1.47895        5.19851
H          7.66917        1.45304        5.69120
H          8.59587        2.97791        5.68449
H          9.37896        1.48546        5.15857
