72

C         12.81211       -3.16342        4.13372
C         11.74529       -2.56368        3.21387
C         12.17722       -1.24628        2.55913
C         11.11264       -0.64386        1.63602
C         11.54567        0.67093        0.97926
C         10.48848        1.26171        0.03891
C         10.93179        2.58833       -0.59191
C          9.91242        3.14401       -1.57029
O         10.39394        4.42521       -2.04329
C          9.60992        4.96507       -3.08216
C         10.28260        6.18226       -3.67370
C          9.56600        7.37036       -3.87872
C         10.18342        8.45866       -4.45909
C         11.55050        8.34081       -4.80194
N         12.22429        7.21386       -4.59032
N         11.58418        6.17308       -4.05030
C         12.42491        4.96349       -4.00198
C         12.08199        4.04097       -5.18349
O         11.13002        4.21340       -5.91726
O         12.96944        3.04861       -5.22457
C         12.80472        2.04992       -6.29714
C         13.56590        2.46062       -7.54825
C         13.47150        1.38210       -8.63294
C         12.34126        9.46286       -5.40333
C         12.27251       10.74021       -4.55204
O         11.36972       10.98540       -3.77347
O         13.31606       11.52480       -4.82113
C         13.34939       12.83471       -4.14797
C         14.69513       13.46877       -4.43979
C         14.80286       14.87907       -3.84166
C         16.16481       15.52703       -4.10527
H         12.47142       -4.10704        4.58135
H         13.06296       -2.47766        4.95658
H         13.74209       -3.37373        3.58458
H         10.81686       -2.39626        3.78572
H         11.48636       -3.29126        2.42599
H         13.10665       -1.41222        1.98593
H         12.43557       -0.51580        3.34608
H         10.18418       -0.47655        2.20959
H         10.85448       -1.37645        0.85113
H         12.48170        0.50757        0.41667
H         11.78920        1.40904        1.76317
H          9.54788        1.41517        0.59476
H         10.25815        0.53025       -0.75508
H         11.89164        2.44718       -1.11665
H         11.10919        3.33690        0.19678
H          8.92726        3.28515       -1.08920
H          9.77515        2.46836       -2.43549
H          8.61427        5.28036       -2.71849
H          9.44175        4.23204       -3.89797
H          8.52077        7.40779       -3.57353
H          9.65277        9.39198       -4.63585
H         12.24059        4.44122       -3.05516
H         13.46492        5.29702       -4.06263
H         11.73069        1.92820       -6.49064
H         13.20886        1.13073       -5.85507
H         14.61835        2.64298       -7.28261
H         13.15505        3.40960       -7.92565
H         13.89494        0.42666       -8.29166
H         14.02694        1.68839       -9.52809
H         12.42992        1.20164       -8.93427
H         11.92472        9.72107       -6.39205
H         13.38095        9.15583       -5.56015
H         13.18088       12.67179       -3.07419
H         12.51204       13.43033       -4.54169
H         14.84711       13.51363       -5.53027
H         15.49410       12.82723       -4.03387
H         14.61953       14.83375       -2.75519
H         14.00446       15.51459       -4.25958
H         16.98076       14.93965       -3.65910
H         16.21154       16.53762       -3.67927
H         16.36594       15.61069       -5.18335
