70

C          3.59488       -2.85453       -1.67429
C          3.97776       -1.58899       -0.90390
C          4.18711       -0.37380       -1.81680
C          4.54975        0.89630       -1.03590
C          4.87503        2.09674       -1.92771
O          5.38223        3.23286       -1.23467
C          4.47634        3.77871       -0.30177
C          5.00955        5.12664        0.16684
C          4.10711        5.83667        1.18430
C          4.71401        7.14452        1.70971
C          3.78874        7.89121        2.67636
C          4.38940        9.19073        3.22387
C          3.44748        9.94025        4.17279
C          4.04636       11.22842        4.74732
C          3.09630       11.97817        5.68878
C          3.70122       13.25962        6.26832
N          3.16241        3.92455       -0.97744
C          2.89895        3.44643       -2.20179
N          1.82244        3.91309       -2.87868
N          3.71391        2.53440       -2.74950
C          3.71022        2.23215       -4.19171
C          4.42847        3.29907       -5.03212
C          4.41274        2.98999       -6.53768
C          3.05004        3.24791       -7.19273
S          3.09173        2.76798       -8.93430
O          3.97234        3.66141       -9.65641
O          3.24137        1.33608       -8.98883
O          1.56253        3.11125       -9.36536
H          3.45672       -3.70473       -0.99411
H          4.37281       -3.13417       -2.39946
H          2.65477       -2.71884       -2.22905
H          4.89955       -1.76881       -0.32681
H          3.19554       -1.35409       -0.16265
H          3.26712       -0.20467       -2.40228
H          4.98435       -0.60253       -2.54581
H          5.44463        0.71578       -0.41934
H          3.72800        1.14393       -0.34518
H          5.66922        1.83285       -2.63991
H          4.33401        3.09962        0.55917
H          5.17903        5.75832       -0.71917
H          5.99571        4.92997        0.61430
H          3.89674        5.16408        2.03354
H          3.12587        6.07817        0.73161
H          4.96234        7.79925        0.85677
H          5.67138        6.92081        2.20992
H          3.52875        7.22758        3.51954
H          2.83590        8.11887        2.16556
H          4.66300        9.85106        2.38236
H          5.33351        8.96319        3.74867
H          3.15985        9.27148        5.00309
H          2.50988       10.17987        3.64043
H          4.34144       11.89717        3.91938
H          4.97936       10.98821        5.28717
H          2.79736       11.30650        6.51156
H          2.16681       12.22168        5.14614
H          4.61113       13.04500        6.84854
H          2.99551       13.77091        6.93693
H          3.97717       13.96774        5.47272
H          2.48821        4.54334       -0.53705
H          1.20396        4.58240       -2.43785
H          1.43123        3.37399       -3.64035
H          2.67516        2.06449       -4.52617
H          4.20291        1.25785       -4.30681
H          5.47291        3.36373       -4.69207
H          3.98000        4.28703       -4.84126
H          4.71400        1.94502       -6.71175
H          5.16591        3.61698       -7.03475
H          2.77579        4.31183       -7.16496
H          2.23443        2.65306       -6.75682
H          1.60276        3.84975      -10.00351
