26

Br         4.19249       -3.59856       -4.33602
C          2.74619       -3.87080       -3.03285
C          2.90030       -2.87639       -1.89453
C          2.91213       -1.37788       -2.20856
N          1.55561       -0.84668       -2.61659
C          1.40603        0.64458       -2.37387
C         -0.06387        1.06214       -2.33887
C         -0.17163        2.56576       -1.97979
F          0.24958        2.77312       -0.71259
F          0.56213        3.33540       -2.80824
F         -1.46323        2.95095       -2.07484
O         -0.64068        0.79251       -3.60358
N          1.22694       -1.31434       -3.95055
Br         1.41974       -3.20880       -0.59821
H          2.85688       -4.89473       -2.66622
H          1.80962       -3.75302       -3.58228
H          3.81109       -3.08814       -1.32129
H          3.62049       -1.15914       -3.02083
H          3.20785       -0.82161       -1.31234
H          0.89992       -1.35688       -1.97816
H          1.95301        1.16296       -3.17217
H          1.86965        0.86890       -1.40507
H         -0.58992        0.52307       -1.52642
H         -1.57077        1.08045       -3.60725
H          1.97834       -0.99777       -4.57249
H          0.36427       -0.82367       -4.22070
