34

F          2.55768       -2.18996       -2.78430
C          2.08225       -0.87869       -2.74161
C          2.58274       -0.19770       -1.45537
C          4.07389       -0.09168       -1.43290
N          4.85363       -1.09503       -1.11516
C          6.30468       -0.86662       -1.11237
C          6.53346        0.49732       -1.81287
S          4.88866        1.32575       -1.93166
N          7.04070        0.35963       -3.18406
N          6.98005        1.65467       -3.77699
N          8.34192       -0.20227       -3.24401
C          6.86715       -0.96624        0.31358
C          6.76714       -2.39274        0.88995
C          7.29098       -2.48988        2.32381
O          6.31900       -1.82411        3.14162
O          5.40989       -2.87497        0.85439
H          0.98346       -0.90842       -2.73728
H          2.43830       -0.35728       -3.64260
H          2.23764       -0.77529       -0.58509
H          2.13679        0.80501       -1.39468
H          4.52487       -1.97132       -0.68568
H          6.76338       -1.64753       -1.74186
H          7.17726        1.15820       -1.19707
H          6.95047        1.52648       -4.78964
H          7.83194        2.18998       -3.56236
H          8.29872       -1.20615       -3.41043
H          8.93153        0.01380       -2.43119
H          6.35368       -0.25014        0.97449
H          7.92961       -0.67625        0.27689
H          7.35494       -3.07800        0.25666
H          8.28377       -2.01495        2.40768
H          7.38191       -3.55190        2.60266
H          6.45250       -2.07422        4.06808
H          5.03848       -2.64764        1.73160
