64

F          1.31453       -0.55307        0.07644
C          2.48385       -0.57501       -0.61026
C          2.59101        0.65432       -1.56196
C          2.15868        2.09075       -1.07815
C          2.82578        2.75771        0.18076
C          4.31689        3.10009        0.10453
O          5.06621        1.91870        0.30138
C          6.45837        2.08756        0.13575
C          7.05877        0.68340        0.27486
C          8.55481        0.74307        0.45268
O          9.20144        1.25306       -0.66070
C         10.59940        0.90518       -0.54687
C         10.51016       -0.61544       -0.22699
N          9.21157       -0.67711        0.59515
C         11.66470       -1.29334        0.50074
C         12.94196       -1.37397       -0.35161
C         14.09826       -1.98193        0.45109
C         15.39431       -2.06878       -0.35882
S         16.72782       -2.66635        0.70287
O         17.05232       -1.63900        1.67229
O         16.40678       -4.01249        1.10287
O         17.94617       -2.75494       -0.36410
C         11.35792        1.78947        0.46363
C         11.11226        3.25872        0.19861
C         11.73973        3.90450       -0.87616
C         11.46875        5.24546       -1.15268
C         10.56607        5.95802       -0.35826
C          9.94482        5.32737        0.72200
C         10.21875        3.98548        0.99685
F          2.16342        3.94661        0.34183
F          2.56616        1.98137        1.27146
F          2.39929        2.92486       -2.13716
F          0.82187        2.05617       -0.85738
F          3.87721        0.70821       -2.02893
F          1.78198        0.36660       -2.62340
F          3.51897       -0.59860        0.28148
H          2.52583       -1.48733       -1.22918
H          4.50642        3.84138        0.90259
H          4.52790        3.56920       -0.87250
H          6.87162        2.76777        0.90882
H          6.70061        2.52053       -0.85176
H          6.80000        0.08183       -0.61075
H          6.60088        0.21018        1.15782
H          8.83700        1.26254        1.38604
H         11.01455        1.05324       -1.55159
H         10.28059       -1.14328       -1.16273
H          9.40231       -0.89947        1.58009
H          8.57808       -1.39772        0.22917
H         11.36507       -2.31712        0.77963
H         11.88014       -0.75890        1.44154
H         13.22840       -0.37027       -0.70535
H         12.74457       -1.97705       -1.25310
H         13.82406       -2.98914        0.80054
H         14.27776       -1.37166        1.35054
H         15.71623       -1.08930       -0.73988
H         15.32300       -2.77671       -1.19623
H         18.59595       -2.06684       -0.12236
H         12.42985        1.55591        0.37548
H         11.08076        1.54925        1.50244
H         12.45547        3.36140       -1.49846
H         11.96956        5.73840       -1.98643
H         10.35916        7.00652       -0.57325
H          9.25497        5.88307        1.35803
H          9.74610        3.50772        1.85931
