74

C          2.85503        0.61899        5.95482
C          4.03968        0.63988        4.98534
C          4.63276       -0.74995        4.72779
C          5.85775       -0.73977        3.80704
C          6.43273       -2.13682        3.55134
C          7.74783       -2.12917        2.76339
C          8.29528       -3.54115        2.51819
C          9.70671       -3.53923        1.95680
O         10.11231       -4.91013        1.75553
C         11.49450       -5.08692        1.58085
C         11.76892       -6.56515        1.47350
C         13.05901       -7.10736        1.51008
C         13.22945       -8.48683        1.42206
C         12.13677       -9.34282        1.29292
N         10.88962       -8.78711        1.24015
C         10.70466       -7.44601        1.33468
C          9.66764       -9.63114        1.10486
C          9.10719       -9.99114        2.49321
C          7.68699      -10.56088        2.44979
C          7.47459      -11.85079        1.58525
Br         8.73492      -13.28355        2.04257
F          6.22003      -12.30395        1.70474
F          7.66626      -11.52108        0.27588
Br         7.10341      -10.90915        4.28529
F          6.84732       -9.60912        1.90207
C         12.30756      -10.84830        1.17490
O         11.88507      -11.35982       -0.07107
C         12.77247      -11.05604       -1.17138
C         12.30527      -11.83219       -2.38894
C         13.20027      -11.59107       -3.61124
C         12.77241      -12.40223       -4.83893
C         13.67216      -12.17831       -6.05952
C         13.25337      -13.00205       -7.27946
H          2.44815        1.62681        6.11450
H          3.15081        0.22155        6.93726
H          2.03792       -0.01265        5.57578
H          4.82799        1.30255        5.38118
H          3.72590        1.08447        4.02573
H          3.85409       -1.40447        4.29772
H          4.91162       -1.20901        5.69316
H          6.63969       -0.10013        4.25301
H          5.59420       -0.26836        2.84415
H          5.68571       -2.75052        3.01832
H          6.60215       -2.64080        4.51936
H          8.49378       -1.53507        3.31993
H          7.60442       -1.61219        1.79942
H          7.63182       -4.08909        1.82939
H          8.30289       -4.10483        3.46558
H         10.40542       -3.05591        2.66458
H          9.76659       -2.99663        0.99539
H         12.06935       -4.67219        2.43414
H         11.86904       -4.57915        0.66668
H         13.92830       -6.45491        1.61052
H         14.22537       -8.92718        1.45258
H          9.67848       -7.08532        1.29782
H          9.93923      -10.50855        0.51021
H          8.94260       -9.04016        0.53415
H          9.04220       -9.08590        3.11426
H          9.75886      -10.70342        3.01357
H         11.71372      -11.36648        1.94335
H         13.37010      -11.07857        1.36940
H         13.80230      -11.34460       -0.88755
H         12.76886       -9.96752       -1.37217
H         11.26560      -11.54794       -2.61904
H         12.29015      -12.90428       -2.13700
H         14.24456      -11.84369       -3.35741
H         13.19985      -10.51646       -3.86516
H         11.72989      -12.14973       -5.10041
H         12.76756      -13.47571       -4.58152
H         14.71372      -12.42255       -5.78993
H         13.67150      -11.10606       -6.31943
H         13.27796      -14.08008       -7.06182
H         13.92158      -12.82177       -8.13213
H         12.23130      -12.75265       -7.60045
