70

C          2.02799       -0.27938        2.31866
C          3.45791        0.05765        1.88806
C          3.51770        0.82769        0.56328
C          4.95024        1.15763        0.13652
C          4.98689        1.87641       -1.23397
C          6.37005        2.30385       -1.61132
N          7.21162        1.39736       -2.17791
C          8.55439        1.65861       -2.33879
C          9.12227        2.71929       -1.70969
C          8.31184        3.66314       -1.02917
C          6.87866        3.57890       -1.18896
C          6.08887        4.74685       -0.83854
C          6.71486        5.64834        0.01735
C          8.07633        5.59128        0.37307
C          8.89857        4.67353       -0.23965
C          4.74608        5.21045       -1.48012
C          4.55723        4.71124       -2.94677
C          5.32902        5.39718       -4.09517
C          6.85801        5.30375       -3.99631
C          4.84465        4.80789       -5.42861
C          3.46995        4.77582       -0.65960
O          3.69962        4.58695        0.73025
C          4.69417        6.76224       -1.50004
C          6.75385        0.06690       -2.69164
C          7.57557       -1.16888       -2.26964
C          7.55435       -1.49976       -0.76345
C          8.35055       -0.57916        0.16893
C          7.02722       -2.35171       -3.08658
H          2.01799       -0.82349        3.27231
H          1.52208       -0.90890        1.57187
H          1.42509        0.63090        2.44857
H          4.04569       -0.87164        1.79596
H          3.95130        0.65288        2.67427
H          2.94166        1.76318        0.65812
H          3.02355        0.23482       -0.22707
H          5.54855        0.23567        0.10035
H          5.42267        1.81207        0.88559
H          4.38054        2.77121       -1.13698
H          4.50516        1.26585       -2.00888
H          9.11902        0.92895       -2.91057
H         10.20367        2.84802       -1.73545
H          6.15109        6.50501        0.37767
H          8.48381        6.33990        1.05273
H          9.98154        4.69933       -0.11691
H          3.48320        4.82600       -3.17265
H          4.74686        3.62983       -3.01308
H          5.06169        6.46683       -4.09796
H          7.19794        4.25571       -4.00367
H          7.25905        5.77921       -3.09070
H          7.32351        5.80189       -4.85773
H          5.09161        3.73651       -5.50180
H          5.31793        5.31438       -6.28060
H          3.75596        4.90726       -5.54309
H          3.05768        3.83079       -1.04131
H          2.68852        5.53267       -0.83606
H          3.52406        5.41387        1.20249
H          5.60772        7.22034       -1.89905
H          4.51104        7.18795       -0.50391
H          3.85182        7.07647       -2.13129
H          6.76467        0.15301       -3.78927
H          5.71542       -0.07687       -2.38689
H          8.62696       -1.02478       -2.57248
H          7.95785       -2.51893       -0.66146
H          6.50564       -1.57256       -0.42617
H          9.39426       -0.48070       -0.16342
H          8.37013       -0.99637        1.18415
H          7.92956        0.43172        0.24971
H          5.98212       -2.57182       -2.82009
H          7.61489       -3.25615       -2.88580
H          7.06736       -2.16019       -4.16790
