110

C         -1.34491        2.06414       -1.14353
C          0.11894        2.44440       -0.90726
C          0.95075        2.50125       -2.19361
C          2.41596        2.88205       -1.95896
C          3.26490        2.90427       -3.23430
C          4.74135        3.22327       -2.97779
C          5.60898        3.21632       -4.24104
C          7.10452        3.38957       -3.95303
C          7.98021        3.37207       -5.21026
C          9.48276        3.39359       -4.90733
C         10.35404        3.34924       -6.16871
C         11.83110        3.18325       -5.85086
O         12.56044        3.10010       -7.08609
C         13.88971        2.67955       -6.93858
C         14.41602        2.41834       -8.35884
O         13.75470        1.32973       -9.00651
C         14.20555        0.07007       -8.53880
C         15.68207       -0.12823       -8.84737
N         16.55346        0.94723       -8.21697
C         15.93871        2.30797       -8.55295
C         16.69853        0.81762       -6.68663
C         16.67660       -0.58603       -6.08954
C         17.08724       -0.53348       -4.60939
C         17.09254       -1.91940       -3.95253
C         17.52836       -1.88484       -2.48648
C         17.93926        0.92924       -8.88081
C         18.80101       -0.30299       -8.64179
C         20.08216       -0.25720       -9.49028
C         20.96172       -1.48761       -9.24097
C         22.27725       -1.49125      -10.02509
C         23.12124       -2.73860       -9.74234
C         24.49377       -2.73985      -10.42214
C         25.30515       -4.00367      -10.11878
C         26.71958       -3.99718      -10.70605
C         27.50910       -5.27156      -10.38937
C         28.93987       -5.26860      -10.93613
C         29.72395       -6.54363      -10.60568
C         31.15516       -6.53536      -11.14844
H         -1.90765        2.02150       -0.20078
H         -1.42903        1.07807       -1.62472
H         -1.84757        2.79322       -1.79661
H          0.57945        1.72124       -0.21245
H          0.16896        3.42234       -0.39903
H          0.49127        3.22151       -2.89366
H          0.90476        1.52014       -2.69916
H          2.86313        2.17182       -1.24068
H          2.46266        3.87135       -1.47082
H          2.84542        3.63942       -3.94330
H          3.18895        1.92423       -3.73803
H          5.14607        2.48900       -2.25849
H          4.82477        4.20595       -2.48136
H          5.26852        4.01123       -4.92750
H          5.45523        2.26550       -4.78176
H          7.43248        2.58316       -3.27303
H          7.26899        4.33238       -3.40264
H          7.71987        4.22913       -5.85514
H          7.74791        2.46859       -5.80116
H          9.72670        2.52996       -4.26325
H          9.72841        4.29195       -4.31540
H         10.21243        4.26502       -6.76413
H         10.04351        2.50745       -6.80865
H         11.99702        2.25496       -5.26822
H         12.21346        4.02893       -5.24719
H         13.93295        1.77479       -6.29618
H         14.52255        3.45439       -6.45246
H         14.11737        3.30463       -8.94158
H         13.63350       -0.69012       -9.08706
H         13.98882       -0.06845       -7.46448
H         15.84181       -0.04610       -9.93080
H         16.04109       -1.10528       -8.50970
H         16.15492        2.47113       -9.61637
H         16.48413        3.05963       -7.96696
H         15.89247        1.41266       -6.24702
H         17.64217        1.32923       -6.45222
H         17.35607       -1.26531       -6.62180
H         15.66734       -1.01843       -6.16618
H         16.40645        0.13594       -4.05601
H         18.09280       -0.08576       -4.52601
H         17.76201       -2.58475       -4.52309
H         16.08533       -2.36148       -4.03031
H         18.54552       -1.48055       -2.37965
H         17.52446       -2.89155       -2.04944
H         16.85647       -1.25844       -1.88199
H         18.44606        1.83578       -8.51956
H         17.74506        1.05862       -9.95479
H         18.24857       -1.22147       -8.89385
H         19.08533       -0.37687       -7.58169
H         20.65026        0.65975       -9.25958
H         19.81779       -0.19733      -10.55950
H         20.38722       -2.39743       -9.48879
H         21.18636       -1.55698       -8.16212
H         22.85790       -0.58796       -9.76941
H         22.06623       -1.42246      -11.10608
H         22.55791       -3.63617      -10.05346
H         23.26351       -2.83695       -8.65129
H         25.06271       -1.85178      -10.09483
H         24.36809       -2.63376      -11.51379
H         24.75727       -4.88602      -10.49412
H         25.37083       -4.13565       -9.02399
H         27.26988       -3.12095      -10.31990
H         26.66481       -3.86080      -11.80046
H         26.96629       -6.14502      -10.79216
H         27.53933       -5.41597       -9.29467
H         29.48243       -4.39391      -10.53544
H         28.91390       -5.13016      -12.03158
H         29.18160       -7.41627      -11.00769
H         29.74553       -6.68107       -9.51117
H         31.16602       -6.43573      -12.24414
H         31.68767       -7.46235      -10.89500
H         31.73441       -5.69591      -10.73596
