66

C          2.63286        0.60604       -3.74320
C          3.54805        1.74290       -3.28200
C          3.19067        2.26621       -1.88664
C          4.11390        3.40999       -1.44571
N          3.82581        3.88019       -0.08040
C          2.94338        4.85741        0.19464
S          2.52569        5.33127        1.75527
S          2.27767        5.65223       -1.27383
C          0.99781        6.71043       -0.55656
C         -0.28488        5.92954       -0.23243
C         -1.06047        6.54711        0.95347
C         -2.14108        5.64257        1.43920
N         -3.45954        5.73446        1.02359
C         -4.19611        4.75244        1.56676
N         -3.37031        4.01770        2.32623
C         -2.07481        4.54220        2.27603
C         -0.91671        3.93986        2.99012
C         -0.25398        2.79366        2.20965
O          0.53858        2.07106        3.16547
C          1.54359        1.29198        2.64476
O          1.77126        1.22323        1.45532
C          2.26811        0.54997        3.74357
C          3.79084        0.52437        3.54828
C          4.50214       -0.32973        4.59781
I         -3.99830        2.37134        3.43394
C          4.53686        3.18010        0.99990
C          5.89836        3.80672        1.31688
C          6.60451        3.08920        2.47266
C          7.99581        3.65545        2.76395
H          2.91539        0.24738       -4.74183
H          1.58366        0.93295       -3.79186
H          2.68158       -0.25056       -3.05523
H          3.50130        2.57229       -4.00756
H          4.59515        1.39642       -3.28499
H          3.24383        1.44981       -1.14905
H          2.14872        2.62344       -1.87329
H          4.05403        4.25772       -2.14401
H          5.16401        3.08229       -1.45582
H          0.83294        7.49923       -1.30398
H          1.42815        7.16169        0.34966
H         -0.00803        4.90455        0.04415
H         -0.92770        5.85378       -1.12250
H         -1.48358        7.53013        0.69330
H         -0.34841        6.71699        1.77522
H         -3.82742        6.45241        0.40421
H         -5.25816        4.59092        1.42820
H         -1.25047        3.55837        3.96783
H         -0.16522        4.71777        3.18675
H          0.38987        3.17519        1.40591
H         -1.00023        2.11242        1.76839
H          1.87484       -0.48196        3.73171
H          1.99507        0.98137        4.71613
H          4.17105        1.55578        3.59391
H          4.01389        0.15360        2.53722
H          4.30817        0.03639        5.61643
H          5.58903       -0.31491        4.44279
H          4.17390       -1.37829        4.55304
H          4.64491        2.13064        0.68991
H          3.89042        3.20677        1.88450
H          5.75046        4.86849        1.57060
H          6.53923        3.78209        0.41938
H          6.68233        2.01228        2.24526
H          5.97905        3.16490        3.37778
H          8.65755        3.55923        1.89078
H          8.47332        3.12975        3.60168
H          7.94523        4.72235        3.02574
