106

C          0.56327        0.49064        0.54609
C          2.09286        0.45162        0.52356
C          2.68587       -0.62037        1.44348
C          4.21621       -0.67156        1.41618
C          4.81576       -1.74900        2.32482
C          6.34523       -1.81086        2.26988
C          6.95271       -2.89719        3.16236
C          8.47937       -2.97972        3.06939
C          9.09329       -4.07032        3.95193
C         10.61493       -4.18238        3.81695
C         11.23311       -5.25582        4.71696
C         12.74631       -5.41484        4.53986
C         13.36543       -6.42686        5.50787
C         14.86979       -6.64263        5.31268
C         15.47620       -7.56741        6.37171
C         16.97364       -7.84452        6.19892
C         17.56019       -8.60253        7.39337
C         19.04447       -8.96471        7.26731
C         19.60536       -9.50263        8.58820
C         21.06230       -9.98506        8.52050
C         21.62524      -10.28860        9.91050
N         20.86741      -11.45144       10.54046
C         21.86989      -12.58083       10.74747
O         23.00468      -12.18889       10.04309
C         23.11586      -10.74036       10.07864
C         24.08736      -10.34753        8.94649
C         24.06343      -11.17726        7.65587
C         25.05928      -10.64567        6.64016
F         24.69140       -9.34120        6.25379
C         23.75520      -10.24516       11.42631
C         22.91098       -9.75773       12.60112
O         22.07888      -10.80973       13.10222
C         21.20593      -10.44375       14.17520
C         19.92217       -9.78448       13.67285
O         19.26486      -10.55488       12.64851
C         18.42347      -11.62566       13.12066
C         17.49963      -12.07450       12.00754
O         18.24407      -12.68818       10.95049
C         17.38062      -13.32037        9.99778
H          0.16886        1.26849       -0.12236
H          0.18529        0.69819        1.55834
H          0.13642       -0.47156        0.22570
H          2.49202        1.43825        0.81369
H          2.44240        0.27558       -0.50786
H          2.28266       -1.60797        1.15714
H          2.34296       -0.44268        2.47818
H          4.61908        0.31499        1.70591
H          4.55465       -0.84284        0.37900
H          4.40216       -2.73359        2.04361
H          4.49295       -1.57147        3.36583
H          6.76103       -0.82876        2.55629
H          6.66315       -1.98017        1.22594
H          6.51924       -3.87580        2.89044
H          6.65809       -2.71683        4.21124
H          8.91574       -2.00243        3.34106
H          8.76849       -3.15770        2.01857
H          8.63445       -5.04303        3.70140
H          8.83238       -3.87607        5.00737
H         11.07584       -3.20567        4.04708
H         10.87030       -4.39641        2.76418
H         10.74161       -6.22503        4.52062
H         11.01322       -5.01437        5.77207
H         13.23621       -4.43494        4.67789
H         12.96243       -5.71774        3.50046
H         12.84501       -7.39554        5.40656
H         13.17955       -6.09206        6.54392
H         15.38801       -5.66827        5.34297
H         15.05529       -7.05495        4.30580
H         14.92934       -8.52680        6.37642
H         15.30750       -7.12053        7.36787
H         17.51437       -6.89018        6.07610
H         17.14280       -8.41409        5.26918
H         16.97813       -9.52658        7.56081
H         17.41728       -7.98860        8.30049
H         19.62303       -8.07551        6.96547
H         19.18285       -9.70802        6.46417
H         18.94637      -10.32018        8.93643
H         19.52259       -8.71101        9.35352
H         21.68740       -9.20300        8.06396
H         21.14101      -10.86807        7.86748
H         21.42831       -9.41423       10.54546
H         20.07721      -11.75387        9.95578
H         20.42368      -11.15961       11.44964
H         21.48023      -13.51547       10.32557
H         22.03358      -12.66187       11.83086
H         25.10553      -10.41428        9.36226
H         23.93164       -9.28202        8.71649
H         23.07147      -11.19223        7.18594
H         24.32517      -12.22240        7.87714
H         25.07339      -11.26524        5.73149
H         26.07976      -10.58641        7.05192
H         24.41232       -9.39726       11.17875
H         24.42019      -11.05503       11.76303
H         22.30259       -8.87910       12.31281
H         23.59608       -9.41964       13.39941
H         21.71007       -9.76747       14.88865
H         20.98276      -11.38061       14.70611
H         20.13433       -8.81197       13.20573
H         19.23457       -9.60688       14.51734
H         17.80667      -11.26242       13.96019
H         19.03175      -12.47548       13.47689
H         16.92287      -11.21494       11.61856
H         16.78460      -12.80261       12.43390
H         18.01782      -13.77220        9.22831
H         16.70121      -12.59018        9.52602
H         16.77941      -14.11149       10.47611
