105

C          0.65897       -0.56658       -0.55513
C          2.18681       -0.57413       -0.46119
C          2.71766       -1.20077        0.83356
C          4.24665       -1.20379        0.92627
C          4.79670       -1.83490        2.21011
C          6.32693       -1.81160        2.28148
C          6.91205       -2.44809        3.54703
C          8.44246       -2.38271        3.59154
C          9.06922       -3.02972        4.83141
C         10.59777       -2.90972        4.85102
C         11.25827       -3.57722        6.06466
C         12.76578       -3.38894        6.06070
O         13.33408       -4.04908        7.21127
C         14.73036       -3.89449        7.30211
C         15.17936       -4.51199        8.65013
C         14.63978       -5.88475        8.77068
N         15.56994       -6.76780        8.87512
C         16.97838       -6.24496        8.85399
C         16.71002       -4.70478        8.81134
C         17.63362       -6.73559        7.53881
C         17.78599       -8.24869        7.33588
C         18.49486       -8.57897        6.01554
C         18.72979      -10.07784        5.80255
C         19.46648      -10.39368        4.49616
C         19.75084      -11.88569        4.29388
C         20.50179      -12.18901        2.99305
C         20.78834      -13.67822        2.77600
C         21.55460      -13.96857        1.48114
C         21.82859      -15.45741        1.24701
C         22.61166      -15.74360       -0.03833
C         22.87937      -17.23373       -0.27720
C         23.66615      -17.51202       -1.56045
C         17.68728       -6.76825       10.14666
C         19.20474       -6.53629       10.09957
O         19.45439       -5.13513        9.96478
C         17.06339       -6.22938       11.45487
C         17.38680       -7.08673       12.68333
H          0.31521       -0.11056       -1.49385
H          0.21018        0.00176        0.27327
H          0.25042       -1.58736       -0.51327
H          2.56600        0.45870       -0.54441
H          2.60660       -1.11818       -1.32443
H          2.34255       -2.23628        0.91745
H          2.29856       -0.65829        1.69957
H          4.61669       -0.16626        0.84558
H          4.66222       -1.73817        0.05356
H          4.44030       -2.87723        2.28807
H          4.38018       -1.30734        3.08623
H          6.67558       -0.76619        2.20851
H          6.73853       -2.32626        1.39520
H          6.58540       -3.50083        3.61372
H          6.49661       -1.94543        4.43806
H          8.75920       -1.32623        3.53602
H          8.85166       -2.86562        2.68658
H          8.78215       -4.09487        4.87611
H          8.65324       -2.56436        5.74185
H         10.87345       -1.84112        4.82619
H         11.00658       -3.34898        3.92447
H         11.02988       -4.65566        6.07151
H         10.84761       -3.15862        6.99758
H         13.02890       -2.31483        6.09928
H         13.21452       -3.81209        5.14192
H         15.03306       -2.83021        7.28087
H         15.25284       -4.40886        6.46982
H         14.73606       -3.89532        9.44979
H         13.58396       -6.15991        8.74527
H         15.38152       -7.77039        8.94159
H         17.25864       -4.25749        7.97419
H         17.07351       -4.22083        9.72052
H         18.61942       -6.24942        7.48434
H         17.04970       -6.31545        6.70302
H         16.79849       -8.74630        7.33964
H         18.35572       -8.69737        8.16549
H         19.46453       -8.05189        5.99124
H         17.90925       -8.17178        5.17332
H         17.76214      -10.60962        5.81666
H         19.30848      -10.47922        6.65306
H         20.41950       -9.83638        4.47411
H         18.87661      -10.01487        3.64320
H         18.79936      -12.44591        4.30727
H         20.33617      -12.26470        5.15017
H         21.45427      -11.63022        2.98501
H         19.91975      -11.80243        2.13792
H         19.83568      -14.23675        2.77038
H         21.36163      -14.06976        3.63483
H         22.51252      -13.41917        1.49486
H         20.98841      -13.56309        0.62403
H         20.86960      -16.00450        1.21934
H         22.38306      -15.86674        2.11000
H         23.57352      -15.20135       -0.00816
H         22.06133      -15.32968       -0.90197
H         21.91753      -17.77328       -0.30984
H         23.42620      -17.64646        0.58763
H         23.12887      -17.14266       -2.44681
H         23.83902      -18.58768       -1.70249
H         24.64900      -17.01772       -1.54202
H         17.56466       -7.86712       10.14527
H         19.65670       -7.09733        9.26384
H         19.64376       -6.93264       11.02968
H         20.39749       -4.96989       10.11356
H         15.96748       -6.17042       11.35504
H         17.41196       -5.20009       11.62457
H         17.03540       -8.12167       12.55917
H         16.90246       -6.67638       13.57835
H         18.46478       -7.12408       12.89097
