44

C          0.92651       -0.40420       -0.11189
C          2.41267       -0.03696       -0.11856
C          3.17389       -0.66337       -1.29520
C          4.63873       -0.26288       -1.32055
O          5.27753       -0.90129       -2.44392
C          6.61518       -0.50428       -2.63693
C          7.09940       -1.02959       -4.00956
C          6.75700       -2.51663       -4.15846
N          7.79222       -3.20386       -3.28762
C          9.07959       -2.36843       -3.37834
C          8.64807       -1.05282       -4.04767
C          6.45569       -0.17252       -5.13983
C          6.71719       -0.65001       -6.54957
C          7.83633       -0.20122       -7.26994
C          8.09550       -0.67011       -8.56070
C          7.23414       -1.59558       -9.15546
C          6.10489       -2.03639       -8.45923
C          5.84854       -1.56481       -7.16955
H          0.40968        0.05229        0.74230
H          0.78202       -1.49239       -0.04451
H          0.42467       -0.05792       -1.02707
H          2.87610       -0.35606        0.82989
H          2.51998        1.06002       -0.15566
H          2.70803       -0.35989       -2.24687
H          3.10101       -1.76254       -1.24401
H          5.15171       -0.56382       -0.38640
H          4.74602        0.83333       -1.42203
H          7.25832       -0.87583       -1.80511
H          6.71673        0.59825       -2.62596
H          6.91324       -2.86121       -5.18881
H          5.75387       -2.78322       -3.80882
H          7.94829       -4.17775       -3.57079
H          7.45742       -3.22588       -2.31676
H          9.80370       -2.93972       -3.96876
H          9.46776       -2.25187       -2.36105
H          8.99262       -1.03419       -5.08931
H          9.08200       -0.18479       -3.53497
H          6.82924        0.85521       -5.01569
H          5.37343       -0.13880       -4.94737
H          8.49780        0.54857       -6.82924
H          8.96300       -0.29909       -9.10748
H          7.42985       -1.95772      -10.16498
H          5.41335       -2.73775       -8.92811
H          4.94479       -1.89068       -6.64748
