118

C          0.83679        0.36208       -1.45844
C          2.28504        0.62868       -1.87608
C          3.01050        1.62302       -0.96176
C          4.47086        1.86299       -1.35727
C          5.20263        2.85820       -0.45029
C          6.67018        3.06684       -0.83815
C          7.41310        4.05720        0.06528
C          8.88741        4.23034       -0.31592
C          9.64497        5.20842        0.58841
C         11.11660        5.36527        0.18649
C         11.88159        6.33006        1.10664
C         13.30584        6.53575        0.71665
N         14.14461        7.50003        1.14082
C         15.40537        7.38420        0.55878
C         15.33033        6.28369       -0.27252
N         14.03254        5.79807       -0.13816
C         16.31526        5.63100       -1.18529
C         17.51248        4.98763       -0.46946
O         18.40007        4.58732       -1.48804
C         19.64062        4.06146       -0.98696
C         20.55833        3.82794       -2.17055
C         16.50811        8.34458        0.87956
C         17.38069        8.71889       -0.33010
C         18.47503        9.72512        0.04006
S         19.77580        9.77949       -1.21498
C         20.75761        8.33360       -0.76838
S         20.53846        7.49984        0.66872
N         21.69149        8.02870       -1.69390
C         21.78770        8.70809       -2.99627
C         20.93270        8.03599       -4.07907
C         21.02562        8.75223       -5.42919
C         20.16111        8.09891       -6.51314
C         20.25822        8.78895       -7.87749
C         19.40105        8.12535       -8.96045
C         19.50546        8.80266      -10.33151
C         18.66098        8.12022      -11.41063
C         22.65748        6.94148       -1.47099
C         23.97999        7.42837       -0.86919
C         24.99216        6.28636       -0.73746
C         26.34714        6.73261       -0.17853
C         27.37981        5.60209       -0.11709
C         28.72248        6.02628        0.48633
C         29.77872        4.91502        0.47573
C         31.09868        5.32590        1.13274
H          0.34378       -0.34252       -2.14181
H          0.24435        1.28915       -1.45432
H          0.78531       -0.06554       -0.44610
H          2.30700        1.00713       -2.91214
H          2.84458       -0.32225       -1.89151
H          2.96961        1.25661        0.07931
H          2.46649        2.58423       -0.96420
H          4.51186        2.22336       -2.40043
H          5.01133        0.90006       -1.35101
H          5.14889        2.50679        0.59517
H          4.67607        3.82835       -0.47024
H          6.72533        3.41582       -1.88447
H          7.19234        2.09406       -0.81694
H          7.34526        3.71744        1.11340
H          6.90727        5.03777        0.03034
H          8.95610        4.57260       -1.36354
H          9.38735        3.24610       -0.28478
H          9.58655        4.86368        1.63491
H          9.15304        6.19564        0.56206
H         11.17264        5.72596       -0.85448
H         11.59455        4.36993        0.21068
H         11.85184        5.95876        2.14593
H         11.38297        7.31324        1.12196
H         13.88377        8.22662        1.80150
H         13.66535        4.99351       -0.63910
H         16.70950        6.36880       -1.89875
H         15.80635        4.86605       -1.79104
H         17.17826        4.12633        0.14536
H         18.00082        5.71230        0.21129
H         19.44862        3.11968       -0.43803
H         20.08015        4.78892       -0.28014
H         20.13211        3.09016       -2.86302
H         21.53311        3.45506       -1.82838
H         20.72017        4.76490       -2.72018
H         17.15867        7.90946        1.65790
H         16.06493        9.25243        1.32161
H         16.75861        9.11388       -1.14749
H         17.88100        7.81658       -0.70299
H         18.95847        9.45470        0.99123
H         18.09609       10.75544        0.10406
H         22.84911        8.70525       -3.28481
H         21.50959        9.76550       -2.87994
H         19.88522        8.01186       -3.73821
H         21.24924        6.98592       -4.19253
H         22.07716        8.77380       -5.76456
H         20.72567        9.80768       -5.30642
H         19.10763        8.09076       -6.18116
H         20.45145        7.03886       -6.61972
H         21.31270        8.79904       -8.20494
H         19.96521        9.84880       -7.77467
H         18.34443        8.11691       -8.63778
H         19.69366        7.06468       -9.05680
H         20.56254        8.81736      -10.64682
H         19.20368        9.85968      -10.23888
H         18.96466        7.07235      -11.55322
H         18.75873        8.62820      -12.37974
H         17.59343        8.12065      -11.14309
H         22.83424        6.46202       -2.44641
H         22.18592        6.20728       -0.80622
H         23.77717        7.87644        0.11616
H         24.40395        8.22766       -1.49998
H         25.14475        5.81801       -1.72645
H         24.57141        5.49716       -0.09025
H         26.20393        7.15577        0.83072
H         26.74444        7.55560       -0.79800
H         27.54546        5.20781       -1.13544
H         26.96727        4.76108        0.46776
H         28.56437        6.37112        1.52349
H         29.11198        6.90067       -0.06464
H         29.96510        4.60615       -0.56690
H         29.37466        4.02370        0.98529
H         31.53357        6.20807        0.64000
H         31.84193        4.51840        1.08307
H         30.95416        5.57924        2.19353
