62

C          3.86773       -2.33004        5.38863
O          4.72802       -1.89446        4.34532
C          5.17477       -2.96794        3.53846
C          6.09055       -2.39102        2.46759
O          6.51348       -3.47691        1.64517
C          7.44348       -3.09673        0.65070
C          7.77532       -4.36485       -0.12412
O          8.80992       -4.06147       -1.06704
C          9.21599       -5.18968       -1.80350
C         10.41678       -4.73183       -2.64322
N         10.87302       -5.76019       -3.57545
C         11.28911       -7.10227       -3.11798
C         11.19342       -7.95894       -4.40004
N         11.32585       -6.90802       -5.41967
C         10.98572       -5.69321       -4.91687
N         10.81772       -4.62992       -5.70730
C         11.01184       -3.19881       -5.42198
C         11.71234       -2.56863       -6.62509
O         10.97167       -2.93633       -7.77558
C         11.51328       -2.39661       -8.99438
C         10.54108       -2.62104      -10.13205
O          9.43568       -1.75364       -9.97541
C          8.51135       -1.84655      -11.05378
C          9.88256       -8.77380       -4.50400
C          9.77954       -9.58659       -5.75938
C         10.10938      -10.86951       -5.94143
Br        10.80357      -11.95633       -4.56011
Br         9.09885       -8.66035       -7.30367
H          3.57316       -1.43904        5.95564
H          4.38092       -3.03755        6.06566
H          2.96180       -2.81975        4.98650
H          4.32164       -3.48850        3.05981
H          5.72784       -3.71539        4.14101
H          6.96070       -1.89672        2.93849
H          5.54882       -1.63433        1.86983
H          8.36584       -2.67936        1.10031
H          7.02024       -2.32947       -0.02660
H          6.87669       -4.74018       -0.64654
H          8.11714       -5.14611        0.57929
H          8.40665       -5.55767       -2.46783
H          9.49511       -6.01766       -1.12183
H         11.24102       -4.43305       -1.97592
H         10.10395       -3.84866       -3.20761
H         10.62352       -7.46567       -2.32685
H         12.31758       -7.06525       -2.72520
H         12.04714       -8.64488       -4.47544
H         11.20770       -7.11858       -6.40807
H         10.74485       -4.80379       -6.71137
H         11.63617       -3.06757       -4.53059
H         10.03918       -2.70971       -5.26214
H         12.75787       -2.92921       -6.69592
H         11.73497       -1.47152       -6.49274
H         12.47824       -2.88545       -9.22358
H         11.68663       -1.31329       -8.87158
H         10.21504       -3.68166      -10.15351
H         11.07137       -2.42014      -11.08495
H          7.71079       -1.12588      -10.85041
H          8.07643       -2.86006      -11.12867
H          8.98976       -1.59377      -12.01754
H          9.01473       -8.10261       -4.41699
H          9.86157       -9.46788       -3.64915
H         10.00151      -11.39353       -6.88806
