79

C          0.63605       -0.13639       -0.15943
C          2.16540       -0.08945       -0.21318
C          2.80724        0.30699        1.12113
C          4.33956        0.29104        1.09706
C          4.97113        0.73238        2.42105
C          6.49608        0.57917        2.45952
C          7.10232        1.05106        3.78798
C          8.56036        0.65544        3.94026
O          9.03706        1.13754        5.21884
C         10.17651        0.46905        5.69301
C         10.40841        0.99805        7.11280
S         11.72892        0.01368        7.92750
C         12.88985        1.26396        7.70455
N         12.38534        2.41181        7.29108
C         10.90505        2.44559        7.18346
C         13.14559        3.64938        7.04486
C         12.67351        4.78393        7.97130
C         13.61718        6.00377        7.96433
C         14.45298        6.23013        9.27691
C         15.51274        5.15014        9.72149
C         16.76236        4.87238        8.80355
F         17.30531        6.00539        8.35011
F         17.66848        4.19375        9.51357
F         16.39824        4.10638        7.73948
F         15.97513        5.54308       10.92531
F         14.85876        3.94761        9.88105
F         15.08349        7.42037        9.18346
F         13.54766        6.29370       10.30030
F         14.48402        5.95950        6.90064
F         12.86622        7.13472        7.82048
C         14.32965        0.99468        7.99255
C         14.72381       -0.46255        7.71514
O         16.06211       -0.60011        8.12768
C         16.60353       -1.86449        7.78939
C         18.07537       -1.93868        8.19795
C         19.13095       -1.16159        7.32936
C         19.16036        0.41039        7.27754
C         19.41202        1.14387        8.63145
F         19.79037        2.42197        8.35373
F         18.25092        1.19167        9.34761
F         20.19351        0.72240        6.44918
F         18.01173        0.87561        6.70402
F         20.36195       -1.54490        7.77215
F         18.97598       -1.59135        6.04316
F         18.23674       -1.57768        9.50446
F         18.42615       -3.25862        8.08293
H          0.20724       -0.40926       -1.13322
H          0.21451        0.83851        0.12766
H          0.28553       -0.87615        0.57602
H          2.48696        0.61987       -0.99450
H          2.55291       -1.07498       -0.52309
H          2.45172       -0.37629        1.91301
H          2.45351        1.31228        1.41127
H          4.70316        0.94125        0.28220
H          4.68660       -0.72749        0.84815
H          4.53444        0.14334        3.24666
H          4.70057        1.78308        2.62460
H          6.94991        1.13654        1.62249
H          6.75176       -0.48205        2.29260
H          6.53936        0.61456        4.62899
H          7.00941        2.14505        3.88077
H          9.18937        1.07655        3.13421
H          8.66455       -0.44503        3.91120
H         11.07242        0.65182        5.06068
H         10.02024       -0.62733        5.72876
H          9.48701        0.87598        7.69592
H         10.61202        3.00187        6.28191
H         10.50582        2.97066        8.06440
H         13.00362        3.92409        5.98975
H         14.20674        3.43895        7.19375
H         12.56866        4.42005        9.00092
H         11.69341        5.16399        7.65544
H         14.52272        1.22085        9.05660
H         14.98333        1.66164        7.41520
H         14.60940       -0.69099        6.63730
H         14.06742       -1.16002        8.27537
H         16.52896       -2.06430        6.70582
H         16.09527       -2.67981        8.33567
H         20.19483        0.65381        9.23031
