80

C         10.15701       -4.21772      -17.48258
C          9.50810       -3.18226      -16.56070
C          9.77339       -3.44493      -15.07423
C          9.16370       -2.39281      -14.14222
C          9.44335       -2.65683      -12.65946
C          8.92454       -1.55795      -11.72654
C          9.26201       -1.80843      -10.25336
C          8.89591       -0.63149       -9.34186
C          9.29852       -0.81886       -7.88910
O         10.71951       -1.10588       -7.84878
C         11.26016       -1.03101       -6.57046
N         12.71021       -1.23217       -6.72078
C         13.39236       -2.25314       -6.17613
N         14.68118       -2.14539       -6.52298
C         14.82371       -1.02258       -7.31675
C         13.58947       -0.44240       -7.45905
C         13.17975        0.71540       -8.31008
O         12.33687        1.58214       -7.57184
C         11.45789        2.37369       -8.40644
O         10.29630        2.64041       -7.70781
C         10.26023        3.88581       -6.96087
C          9.36909        3.65346       -5.75608
O          9.91744        2.67372       -4.87567
C         15.73126       -3.15081       -6.24615
C         15.68343       -4.32138       -7.23724
C         15.82625       -3.91521       -8.70789
C         15.81028       -5.10385       -9.67611
C         15.87506       -4.67008      -11.14469
C         15.83867       -5.83630      -12.13730
C         15.88788       -5.38864      -13.60295
C         15.85374       -6.55446      -14.59411
H          9.94572       -4.00520      -18.53932
H          9.78830       -5.23182      -17.26816
H         11.25057       -4.23168      -17.35980
H          8.41947       -3.16111      -16.73666
H          9.87469       -2.17488      -16.82168
H         10.86434       -3.49086      -14.90378
H          9.38543       -4.44340      -14.80550
H          8.07341       -2.34211      -14.30695
H          9.55557       -1.39664      -14.41424
H         10.53333       -2.76549      -12.51201
H          9.00299       -3.62662      -12.36895
H          7.83278       -1.45068      -11.84626
H          9.35709       -0.58984      -12.03653
H         10.34163       -2.01095      -10.16343
H          8.75109       -2.72174       -9.90218
H          7.80825       -0.45393       -9.36069
H          9.36017        0.29408       -9.72042
H          8.75597       -1.66166       -7.42295
H          9.09821        0.09765       -7.30727
H         10.89338       -1.82453       -5.89167
H         11.09939       -0.04262       -6.10613
H         12.96726       -3.03069       -5.55126
H         15.78298       -0.73382       -7.72881
H         12.64469        0.32593       -9.19820
H         14.09587        1.22220       -8.66563
H         11.19136        1.77366       -9.29475
H         11.98166        3.29895       -8.70974
H          9.85004        4.67995       -7.60652
H         11.27678        4.15703       -6.63686
H          8.35717        3.36293       -6.09418
H          9.27782        4.58516       -5.18045
H         10.13551        1.90938       -5.43360
H         15.59624       -3.49143       -5.21115
H         16.68980       -2.61776       -6.29868
H         14.74557       -4.88219       -7.08865
H         16.49659       -5.00712       -6.95070
H         16.76262       -3.34494       -8.84272
H         15.00663       -3.23042       -8.98727
H         14.89450       -5.69719       -9.50933
H         16.65447       -5.77654       -9.44891
H         16.79283       -4.07883      -11.31026
H         15.03290       -3.98699      -11.35701
H         14.92462       -6.43243      -11.96856
H         16.68430       -6.51643      -11.93477
H         16.79989       -4.79029      -13.76814
H         15.04109       -4.70961      -13.80238
H         16.70744       -7.23170      -14.44457
H         15.89163       -6.19871      -15.63253
H         14.93567       -7.14981      -14.48061
