71

S          1.78308       -1.80730       -0.49578
C          3.25128       -1.06279       -0.71133
N          3.54895       -0.19571       -1.73445
C          4.85315       -0.06845       -2.31431
C          5.33956        1.20590       -2.63822
C          6.59912        1.33846       -3.22028
C          7.37845        0.20573       -3.48057
C          6.88155       -1.06436       -3.17331
C          5.61569       -1.20873       -2.60142
C          2.45993        0.43238       -2.45103
C          2.26627        0.14599       -3.80487
C          1.22683        0.77311       -4.49364
C          0.39018        1.67704       -3.83361
C          0.59600        1.96174       -2.47999
C          1.63484        1.34438       -1.78496
S          4.41965       -1.48730        0.53879
C          5.79050       -0.25537        0.57385
C          6.37235       -0.26732        1.99028
C          7.71829        0.47116        2.03225
C          8.18308        0.77695        3.46144
O          8.25706       -0.34255        4.35232
C          9.16150       -1.31471        3.92107
N         10.42503       -0.67752        3.49779
C         10.58739        0.65310        3.38245
N         11.82273        1.15992        3.18673
C         12.09870        2.32716        2.33895
C         11.88223        1.98831        0.85916
O         11.90048        3.21323        0.15512
C         11.51558        3.11292       -1.20120
C         10.80667        4.40022       -1.63474
C          9.31202        4.60490       -1.18979
C          8.90560        4.74451        0.32233
C          9.51276        5.93927        1.12099
F          8.79152        6.07612        2.27046
F         10.80050        5.66355        1.46298
F          7.55283        4.91103        0.31887
F          9.16736        3.56875        0.97467
F          8.86177        5.73393       -1.80466
F          8.60444        3.53642       -1.67182
F         11.51635        5.50115       -1.25517
F         10.76112        4.38014       -3.00493
N          9.49514        1.45438        3.42790
Br         9.62128        3.04693        4.55960
H          4.72340        2.08261       -2.43680
H          6.97140        2.33067       -3.47515
H          8.35891        0.31237       -3.94599
H          7.46946       -1.95378       -3.40381
H          5.21280       -2.19744       -2.38162
H          2.91941       -0.56743       -4.30778
H          1.06505        0.54724       -5.54786
H         -0.42394        2.16100       -4.37340
H         -0.05330        2.66908       -1.96358
H          1.80181        1.55139       -0.72766
H          5.39505        0.73660        0.32276
H          6.54690       -0.52615       -0.17592
H          6.50187       -1.30426        2.33919
H          5.65949        0.19896        2.68742
H          7.63933        1.44627        1.52835
H          8.48414       -0.09290        1.47520
H          7.47832        1.46238        3.94532
H          8.78153       -1.91274        3.07156
H          9.35010       -1.97715        4.77769
H         11.15033       -1.28481        3.12473
H         12.60010        0.53965        3.39211
H         13.13068        2.64120        2.53480
H         11.44577        3.16195        2.61946
H         10.90072        1.48880        0.73744
H         12.66631        1.29722        0.49213
H         10.82972        2.26673       -1.37706
H         12.39108        2.99901       -1.86395
H          9.47222        6.87933        0.54949
