67

C          0.91448       -0.79045       -0.70932
C          2.42959       -0.63847       -0.54944
C          3.00046       -1.44279        0.62429
C          4.51915       -1.31204        0.78351
C          5.07796       -2.10280        1.97129
C          6.59878       -1.99565        2.12971
C          7.13064       -2.73697        3.36113
C          8.65325       -2.66518        3.52217
C          9.14843       -3.33736        4.80822
C         10.67548       -3.30389        4.97072
C         11.10692       -3.87478        6.30898
O         12.56017       -3.91364        6.36304
C         13.03682       -4.21691        7.64163
N         14.50619       -4.22988        7.57449
N         15.19295       -4.81681        8.60586
C         16.45789       -4.62446        8.33443
N         16.60598       -3.90431        7.15267
C         15.34353       -3.66379        6.68252
N         15.03227       -2.95273        5.58737
C         17.84497       -3.36805        6.56132
C         18.58838       -4.32638        5.62048
C         17.76110       -4.84138        4.45745
F         17.17870       -3.74334        3.76348
C         17.57123       -5.15971        9.17139
C         17.52017       -6.70249        9.36481
C         17.82636       -7.47122        8.06500
F         17.00450       -7.08232        7.04217
F         19.10908       -7.22536        7.65088
F         17.69224       -8.79271        8.21726
O         18.37861       -7.12134       10.39562
H          0.53658       -0.19929       -1.55471
H          0.38152       -0.45627        0.19349
H          0.63459       -1.83967       -0.88675
H          2.68102        0.42727       -0.41427
H          2.93157       -0.95038       -1.48105
H          2.73789       -2.50808        0.49699
H          2.50648       -1.12188        1.55868
H          4.78407       -0.24607        0.89860
H          5.01368       -1.64669       -0.14548
H          4.79770       -3.16574        1.86639
H          4.59096       -1.75426        2.89921
H          6.88581       -0.93121        2.19395
H          7.09057       -2.38694        1.22181
H          6.82035       -3.79551        3.31290
H          6.65034       -2.32381        4.26556
H          8.97342       -1.60862        3.51759
H          9.13884       -3.13427        2.64880
H          8.80378       -4.38527        4.82964
H          8.67595       -2.84356        5.67495
H         11.03873       -2.26614        4.88723
H         11.15106       -3.88106        4.16088
H         10.72743       -4.90196        6.45111
H         10.73755       -3.25052        7.14241
H         12.73433       -5.21966        7.99173
H         12.72672       -3.46180        8.39007
H         15.69912       -2.95995        4.81289
H         14.04054       -2.96313        5.34750
H         18.49668       -3.06898        7.39158
H         17.56827       -2.44378        6.03682
H         18.97282       -5.19703        6.17116
H         19.46423       -3.78032        5.23922
H         16.93163       -5.48903        4.77830
H         18.38062       -5.38589        3.73335
H         17.49796       -4.73132       10.18080
H         18.54707       -4.86317        8.76391
H         16.50310       -6.98962        9.67080
H         19.30561       -7.03108       10.11365
