63

C          0.64776       -0.37651       -0.01696
C          2.17779       -0.38075        0.00708
C          2.76347        0.04486        1.35734
C          4.29482        0.06505        1.38114
C          4.88556        0.49800        2.72660
C          6.41669        0.55220        2.73035
C          7.01628        0.96934        4.07703
C          8.54634        1.05435        4.06026
C          9.15769        1.39573        5.42280
C         10.68867        1.47863        5.40073
C         11.29413        1.69058        6.79269
C         12.80810        1.67589        6.84241
O         13.32334        2.90793        6.22527
C         14.69108        2.92627        6.05667
N         14.91801        3.83833        4.85124
C         14.52600        5.26639        5.11066
C         14.56113        6.12739        3.84451
O         14.04076        7.42603        4.13970
C         14.93683        8.27957        4.77571
O         16.03237        7.89612        5.12372
C         14.36361        9.66389        4.93118
C         12.98768        9.72089        5.62233
C         13.00929        9.20609        7.06231
Br        16.76711        3.67410        4.26115
H          0.25875       -0.68437       -0.99715
H          0.24936        0.62584        0.19972
H          0.23573       -1.06503        0.73574
H          2.56074        0.29055       -0.78018
H          2.54882       -1.38796       -0.24723
H          2.39309       -0.63447        2.14525
H          2.38153        1.04754        1.61887
H          4.66026        0.74232        0.58899
H          4.67701       -0.93783        1.12133
H          4.54187       -0.19315        3.51598
H          4.48560        1.49071        2.99804
H          6.75618        1.25243        1.94667
H          6.81703       -0.43693        2.44636
H          6.69985        0.25191        4.85408
H          6.59910        1.94612        4.37812
H          8.86120        1.80620        3.31495
H          8.95869        0.09070        3.71256
H          8.84911        0.63306        6.15856
H          8.74370        2.35228        5.78598
H         11.00040        2.29279        4.72423
H         11.09462        0.54485        4.97272
H         10.95749        0.88327        7.46452
H         10.92990        2.62785        7.24379
H         13.22395        0.81428        6.29050
H         13.17611        1.64822        7.88035
H         15.11757        1.94274        5.79790
H         15.25547        3.38532        6.88859
H         14.35918        3.45754        4.07130
H         15.21266        5.65713        5.87183
H         13.50506        5.20656        5.51698
H         13.90259        5.71665        3.06507
H         15.58989        6.20952        3.46489
H         14.28493       10.09510        3.91978
H         15.10974       10.24829        5.48519
H         12.25425        9.16103        5.02450
H         12.65980       10.77025        5.61019
H         13.29543        8.14390        7.11355
H         12.01925        9.30050        7.52688
H         13.72326        9.76980        7.67933
