77

N         11.84176       -4.99831        1.34548
C         10.43483       -5.11691        1.74579
C         10.18107       -4.44553        3.10220
C         10.75582       -3.03621        3.27141
N         10.25659       -2.00145        2.31896
C         11.01646       -1.82631        1.05816
O         11.85773       -0.68024        1.19179
C         11.13440        0.51296        1.32212
N          9.96930        0.30284        2.20513
C          9.67044       -0.87484        2.78517
N          8.79235       -0.89409        3.80583
C          7.88014       -1.99966        4.14771
C          6.56597       -1.45351        4.70683
C          5.52584       -2.55762        4.97358
C          5.99915       -3.71895        5.86337
C          6.46770       -3.32003        7.26775
C          7.07074       -4.49099        8.04920
C          7.55935       -4.10399        9.45050
C          8.30672       -5.22007       10.19682
C          9.66277       -5.58165        9.57885
C         10.44915       -6.63889       10.36095
C         11.79723       -6.95827        9.70938
C         12.61190       -8.01599       10.46624
N         13.89177       -8.29848        9.83131
C         14.09131       -9.19909        8.80691
C         15.39984       -9.07897        8.37299
C         16.01292       -8.06196        9.15713
C         15.05819       -7.59513       10.04294
C         10.06650       -1.79491       -0.15907
C         10.76316       -1.60014       -1.46930
C         10.59812       -0.61438       -2.35661
Br         9.39236        0.83252       -2.11581
Br        12.01667       -2.96378       -1.95017
H         11.97590       -5.34649        0.39613
H         12.44173       -5.56506        1.94770
H         10.06660       -6.15727        1.80697
H          9.82459       -4.62925        0.96904
H         10.64438       -5.05197        3.89904
H          9.10038       -4.45653        3.30473
H         11.84702       -3.06207        3.13959
H         10.56243       -2.67072        4.28707
H         11.70013       -2.68391        0.98288
H         10.76173        0.89747        0.35550
H         11.81889        1.24691        1.77161
H          9.31529        1.07300        2.30613
H          8.60287       -0.00174        4.25387
H          8.35650       -2.66432        4.88272
H          7.70244       -2.58479        3.23284
H          6.14193       -0.72867        3.99346
H          6.77616       -0.89929        5.63703
H          5.18638       -2.96367        4.00666
H          4.64236       -2.08235        5.42712
H          6.80860       -4.27470        5.35620
H          5.17217       -4.44093        5.95016
H          5.62180       -2.88551        7.82752
H          7.22630       -2.51856        7.20841
H          7.90696       -4.90685        7.46111
H          6.32866       -5.30377        8.13164
H          6.69482       -3.78037       10.05278
H          8.22028       -3.22157        9.37376
H          7.67020       -6.12066       10.24668
H          8.46308       -4.90411       11.24099
H         10.27480       -4.66508        9.49814
H          9.52331       -5.94391        8.54584
H          9.84592       -7.55993       10.44197
H         10.60786       -6.28828       11.39550
H         12.40222       -6.03972        9.63269
H         11.63936       -7.31117        8.67665
H         12.04860       -8.95909       10.53572
H         12.80791       -7.68537       11.49749
H         13.29172       -9.86031        8.48782
H         15.86841       -9.67556        7.59674
H         17.04263       -7.72406        9.09841
H         15.11314       -6.83399       10.81491
H          9.30185       -1.01114       -0.05248
H          9.53290       -2.75753       -0.16829
H         11.12802       -0.55905       -3.30402
