87

C         21.64942       -7.54382        8.79267
C         21.42730       -7.63186        7.28068
C         19.97661       -7.36816        6.86014
C         19.75520       -7.46200        5.34728
C         18.32529       -7.13587        4.90289
C         18.13250       -7.22970        3.38621
C         16.74632       -6.79627        2.89652
C         16.60203       -6.88436        1.37423
C         15.29597       -6.30995        0.81680
C         15.23706       -6.37745       -0.71193
C         13.91293       -5.90034       -1.31708
C         13.92348       -5.87596       -2.83659
O         14.09827       -7.22635       -3.31079
C         14.38534       -7.32125       -4.68791
C         14.72181       -8.75999       -4.93556
N         14.93024       -9.34839       -6.08180
N         15.20274      -10.65484       -5.74045
C         15.14288      -10.86923       -4.40331
N         15.29445      -12.02806       -3.74916
C         15.38125      -12.05871       -2.26744
C         14.25984      -11.32047       -1.57171
C         12.91480      -11.58343       -1.88055
C         11.89694      -10.87390       -1.25079
C         12.18057       -9.88872       -0.28574
C         13.52328       -9.65056        0.03343
C         14.55176      -10.34952       -0.60521
C         11.06855       -9.12058        0.37645
C         15.70611      -13.22185       -4.50758
C         17.22762      -13.33445       -4.70153
C         17.64080      -14.44366       -5.67891
C         17.34647      -14.09960       -7.15165
N         17.85065      -15.08994       -8.07986
C         19.15060      -15.15551       -8.54409
C         19.27665      -16.30319       -9.30241
C         18.01484      -16.96218       -9.29201
C         17.15572      -16.19740       -8.52709
N         14.85814       -9.64420       -3.88383
H         22.69932       -7.73173        9.05675
H         21.03438       -8.28032        9.33108
H         21.38408       -6.54796        9.17822
H         21.73413       -8.62857        6.91986
H         22.08720       -6.91069        6.76876
H         19.67296       -6.36638        7.21271
H         19.31010       -8.08300        7.37474
H         20.02410       -8.47613        5.00157
H         20.45424       -6.77610        4.83636
H         18.06372       -6.11783        5.24074
H         17.61549       -7.81341        5.40897
H         18.33269       -8.26491        3.05612
H         18.89489       -6.60463        2.88826
H         16.55690       -5.75802        3.21976
H         15.96770       -7.41048        3.38208
H         16.69990       -7.93978        1.05875
H         17.45004       -6.35572        0.90419
H         15.18522       -5.26188        1.14340
H         14.43380       -6.84638        1.25200
H         15.43107       -7.41260       -1.03686
H         16.06233       -5.77307       -1.12757
H         13.68405       -4.87885       -0.97275
H         13.08061       -6.53695       -0.97327
H         14.75819       -5.25383       -3.21135
H         12.98127       -5.46715       -3.24263
H         15.24823       -6.68673       -4.97136
H         13.53170       -7.02514       -5.32696
H         15.42908      -11.31984       -6.47088
H         16.35671      -11.66167       -1.94132
H         15.36336      -13.12624       -2.00392
H         12.66374      -12.34084       -2.62645
H         10.85721      -11.08676       -1.50789
H         13.77494       -8.90217        0.78554
H         15.59092      -10.13861       -0.34032
H         10.43947       -8.61389       -0.36973
H         11.45628       -8.36275        1.06788
H         10.40996       -9.79231        0.94619
H         15.16720      -13.21799       -5.46760
H         15.32230      -14.09314       -3.95887
H         17.69350      -13.51365       -3.72112
H         17.62386      -12.36667       -5.05552
H         17.15047      -15.39546       -5.41998
H         18.72092      -14.62027       -5.57865
H         17.80425      -13.12776       -7.40217
H         16.26306      -14.00350       -7.33093
H         19.86721      -14.37587       -8.30453
H         20.17433      -16.62417       -9.82067
H         17.75923      -17.88591       -9.80063
H         16.10959      -16.33787       -8.27307
H         14.64683       -9.42803       -2.90692
