105

C          0.64154       -0.26115        0.04857
C          2.17172       -0.27727        0.03705
C          2.77526        0.70181       -0.97445
C          4.30638        0.69711       -1.00247
C          4.90033        1.67747       -2.01811
C          6.43146        1.67817       -2.05417
C          7.01631        2.66309       -3.07072
C          8.54734        2.67311       -3.11057
C          9.12348        3.66536       -4.12491
C         10.65438        3.68972       -4.16299
C         11.22180        4.69614       -5.16815
C         12.75239        4.73574       -5.20203
C         13.31186        5.74581       -6.20822
C         14.84233        5.78290       -6.24928
C         15.39828        6.77352       -7.27669
C         16.92947        6.78427       -7.33137
C         17.48473        7.72992       -8.40348
C         19.00908        7.65784       -8.45493
N         19.61159        8.50657       -9.53443
C         19.84217        9.83903       -9.37852
N         19.83531       10.72530      -10.39041
C         19.21158       10.67643      -11.66495
C         18.01557       10.00415      -11.92471
C         17.46054       10.05289      -13.20520
C         18.08921       10.79022      -14.20983
C         19.27178       11.49134      -13.95236
C         19.84242       11.43890      -12.67842
O         20.98029       12.08357      -12.28704
C         21.64766       12.92393      -13.24427
N         20.11443       10.31497       -8.14483
C         19.85992        7.86597      -10.74976
N         19.20158        6.86516      -11.24450
N         19.87515        6.49758      -12.40889
C         20.88705        7.32245      -12.52642
O         20.95500        8.23104      -11.47893
S         22.10276        7.44614      -13.74321
C         21.48274        6.17480      -14.91181
C         22.48882        6.03830      -16.05360
C         21.97022        5.09229      -17.14348
C         22.98356        4.86986      -18.27052
C         22.42905        4.02134      -19.41763
C         23.45300        3.73583      -20.52015
C         22.87130        2.92642      -21.68028
H          0.23499       -0.97160        0.78172
H          0.23386       -0.53001       -0.93734
H          0.25658        0.73748        0.30372
H          2.52926       -1.29647       -0.18733
H          2.55195       -0.03807        1.04460
H          2.41778        1.72223       -0.74898
H          2.39160        0.46379       -1.98242
H          4.66404       -0.32311       -1.22764
H          4.69075        0.93716        0.00457
H          4.54165        2.69710       -1.79167
H          4.51302        1.43777       -3.02412
H          6.79184        0.65983       -2.28323
H          6.82015        1.91782       -1.04874
H          6.65236        3.68032       -2.84191
H          6.62760        2.42234       -4.07591
H          8.91361        1.65782       -3.34364
H          8.93679        2.91218       -2.10531
H          8.75014        4.67864       -3.89379
H          8.73775        3.42347       -5.13094
H         11.03058        2.68009       -4.40447
H         11.04037        3.92389       -3.15528
H         10.83724        5.70358       -4.93030
H         10.84161        4.45757       -6.17703
H         13.13885        3.72983       -5.44257
H         13.13411        4.97426       -4.19381
H         12.92779        6.75252       -5.96720
H         12.92731        5.50704       -7.21527
H         15.22478        4.77273       -6.47724
H         15.23015        6.03629       -5.24717
H         15.03047        7.78867       -7.04743
H         15.00319        6.52184       -8.27584
H         17.29080        5.76129       -7.53205
H         17.33102        7.06475       -6.34185
H         17.16370        8.76481       -8.19772
H         17.08552        7.44665       -9.38916
H         19.33992        6.63576       -8.67351
H         19.45062        7.94117       -7.48982
H         20.46071       11.52669      -10.28351
H         17.50934        9.45679      -11.13027
H         16.53119        9.52304      -13.40864
H         17.65385       10.83319      -15.20811
H         19.74463       12.07145      -14.74269
H         22.50731       13.34734      -12.71596
H         20.98549       13.73244      -13.58647
H         21.99726       12.33181      -14.10236
H         20.45641        9.70809       -7.41064
H         20.02223       11.30279       -7.94388
H         20.49801        6.50512      -15.26806
H         21.35815        5.23665      -14.35645
H         23.44796        5.66597      -15.65892
H         22.69175        7.02731      -16.49739
H         21.03647        5.50357      -17.56388
H         21.70321        4.12128      -16.69329
H         23.88681        4.38858      -17.85751
H         23.31218        5.84687      -18.66596
H         21.55381        4.53208      -19.85631
H         22.05157        3.06430      -19.01667
H         24.31223        3.19815      -20.08553
H         23.85319        4.69113      -20.89993
H         22.48665        1.95542      -21.33484
H         23.62650        2.72940      -22.45297
H         22.03710        3.46116      -22.15830
