73

C          0.56083        4.83634       -2.03450
C          2.08659        4.92489       -1.95263
C          2.76876        3.55558       -2.04710
C          4.29865        3.62833       -1.95327
C          4.95890        2.24303       -2.03627
C          6.48847        2.25208       -2.06398
N          6.98974        3.00984       -0.83123
C          8.49332        3.06263       -0.69394
C          9.04090        1.63713       -0.75500
O          8.59531        1.03168       -1.96963
C          7.17862        0.87382       -2.03844
C          6.86374        0.04193       -3.27715
O          7.35287       -1.26846       -3.04092
C          6.85893       -2.22342       -3.94267
O          7.28900       -1.90035       -5.24685
C          6.89307       -2.87175       -6.22841
C          7.47792       -2.42607       -7.55628
O          8.89972       -2.40961       -7.54293
C         10.56645        1.59870       -0.70778
C         11.15092        2.12467        0.61189
C         12.67755        2.00714        0.70358
C         13.22885        2.58545        2.01198
C         14.75646        2.54422        2.12710
C         15.27209        3.15869        3.43355
C         16.79846        3.16128        3.56553
C         17.29397        3.79494        4.87119
C         18.81863        3.80050        5.00752
H          0.10165        5.83087       -1.96618
H          0.15041        4.22423       -1.21827
H          0.23647        4.38596       -2.98375
H          2.37764        5.41246       -1.00642
H          2.46426        5.57534       -2.75939
H          2.49137        3.06976       -2.99806
H          2.38722        2.89846       -1.24656
H          4.54889        4.13603       -1.00124
H          4.68630        4.27200       -2.76239
H          4.62048        1.75017       -2.95887
H          4.60819        1.60082       -1.20865
H          6.86671        2.83137       -2.92123
H          6.59456        2.54823        0.00267
H          6.58889        3.95749       -0.84805
H          8.71837        3.56518        0.25514
H          8.87524        3.66291       -1.53047
H          8.63601        1.06122        0.10642
H          6.82862        0.30979       -1.14668
H          7.34332        0.49533       -4.16166
H          5.77202        0.01397       -3.45110
H          5.74510       -2.25230       -3.91127
H          7.26880       -3.19262       -3.60890
H          5.78936       -2.93029       -6.29250
H          7.28732       -3.86631       -5.95007
H          7.06680       -1.43314       -7.82123
H          7.17844       -3.13484       -8.34110
H          9.17234       -1.86184       -6.78867
H         10.96547        2.16613       -1.56443
H         10.86190        0.55058       -0.86460
H         10.69527        1.58020        1.45776
H         10.88382        3.18704        0.75309
H         13.13603        2.53028       -0.15308
H         12.97155        0.94837        0.60795
H         12.78507        2.04283        2.86526
H         12.89097        3.63250        2.11307
H         15.20207        3.07882        1.27002
H         15.10492        1.49998        2.04712
H         14.83419        2.61448        4.28891
H         14.90066        4.19572        3.51584
H         17.23960        3.70064        2.70870
H         17.17559        2.12577        3.49604
H         16.84949        3.25704        5.72580
H         16.91474        4.82909        4.93689
H         19.22652        2.77905        4.98585
H         19.13582        4.26389        5.95175
H         19.29153        4.36183        4.18789
