69

C          1.31229       -0.11001       -0.34111
C          2.80091       -0.13319        0.01291
C          3.31123        1.20025        0.57125
C          4.79684        1.17312        0.94094
C          5.30991        2.50751        1.48929
C          6.80299        2.47389        1.87372
N          7.08176        1.45858        2.89410
C          6.70439        1.85284        4.23367
C          7.24176        3.23850        4.69730
N          6.79968        4.26478        3.63071
C          7.33466        3.87105        2.26568
C          6.81714        5.83760        4.00736
C          7.97197        6.58638        3.27256
C          7.82070        8.11543        3.40335
C          9.39131        6.18994        3.70782
C          5.42529        6.31224        3.54102
O          5.30283        6.17390        2.12911
C          6.85451        5.99956        5.52816
C          8.69070        3.24459        5.01180
N          9.24122        3.71935        6.08892
N         10.59195        3.42713        6.02905
C         10.77772        2.77690        4.90391
O          9.60454        2.61267        4.19217
S         12.28516        2.17197        4.31692
C         11.79545        1.35436        2.74987
C         13.05066        0.73590        2.12964
C         12.75021        0.06142        0.78359
C         13.99196       -0.57178        0.15116
H          0.98195       -1.07726       -0.74223
H          1.09208        0.65560       -1.09964
H          0.69398        0.11041        0.54183
H          3.38932       -0.39873       -0.88141
H          2.99424       -0.93159        0.74892
H          2.71689        1.47067        1.46282
H          3.12658        1.99910       -0.16858
H          5.39280        0.90262        0.05168
H          4.98558        0.38195        1.68280
H          4.68033        2.79852        2.35286
H          5.16731        3.30640        0.74438
H          7.36645        2.18336        0.97292
H          8.05001        1.14659        2.85595
H          7.04827        1.09820        4.95267
H          5.60382        1.87836        4.31287
H          6.73470        3.52790        5.62444
H          5.78625        4.08640        3.55339
H          8.42760        3.88069        2.32188
H          6.99178        4.62702        1.55438
H          7.86242        6.36720        2.20104
H          7.94250        8.45853        4.43975
H          6.86401        8.48760        3.01878
H          8.60966        8.59649        2.81229
H          9.57084        6.37517        4.77464
H         10.11701        6.79168        3.14568
H          9.63444        5.14028        3.50678
H          5.29027        7.35461        3.86782
H          4.65530        5.71102        4.06695
H          4.46246        6.56345        1.84198
H          7.75894        5.59003        5.98937
H          5.97646        5.55033        6.01322
H          6.82291        7.07164        5.75702
H         11.35415        2.10800        2.08244
H         11.04435        0.58418        2.97401
H         13.48010       -0.00159        2.82698
H         13.81606        1.51644        1.98789
H         12.32144        0.80646        0.09231
H         11.97407       -0.70881        0.92747
H         14.77410        0.17893       -0.03296
H         13.74920       -1.04203       -0.81052
H         14.42133       -1.34689        0.80191
