48

C          0.95140       -0.88640       -0.34846
C          2.46617       -0.67656       -0.28188
C          2.99820        0.19007       -1.42951
C          4.50857        0.44218       -1.35175
C          5.02845        1.23723       -2.56007
C          6.51888        1.51599       -2.41612
N          7.21326        1.98457       -3.70665
C          6.80605        3.36192       -4.23362
C          6.95829        4.56851       -3.25866
F          6.02585        4.49116       -2.27591
F          8.19898        4.53538       -2.69899
F          7.56525        3.59769       -5.32634
F          5.52327        3.26275       -4.63087
C          8.73303        1.74630       -3.64665
C          9.05872        0.27083       -3.86782
C          8.48074       -0.33317       -5.16371
C          8.93074       -1.76477       -5.36504
C          8.19153       -2.82808       -4.82901
C          8.63440       -4.14479       -4.97363
C          9.82328       -4.41034       -5.65828
C         10.56397       -3.35638       -6.20011
C         10.12006       -2.04038       -6.05406
H          0.60156       -1.52386        0.47374
H          0.65419       -1.36853       -1.29124
H          0.41167        0.06925       -0.27985
H          2.97721       -1.65386       -0.29930
H          2.73335       -0.21084        0.68132
H          2.46836        1.15811       -1.43464
H          2.75728       -0.29375       -2.39227
H          5.04339       -0.52124       -1.28939
H          4.74259        0.98641       -0.42118
H          4.46186        2.17295       -2.65717
H          4.84536        0.65429       -3.47992
H          7.05256        0.59136       -2.16233
H          6.74592        2.26017       -1.64422
H          6.87194        1.35139       -4.45481
H          6.82783        5.50484       -3.82538
H          9.06947        2.11384       -2.67090
H          9.17885        2.36484       -4.43188
H          8.75969       -0.34247       -3.00441
H         10.15685        0.20896       -3.90148
H          8.78125        0.28136       -6.02810
H          7.37239       -0.33300       -5.14156
H          7.25439       -2.62898       -4.30210
H          8.04745       -4.96423       -4.55787
H         10.16814       -5.43780       -5.77612
H         11.48697       -3.55904       -6.74400
H         10.69962       -1.22224       -6.48819
