71

C          1.25961       -0.58242        0.22928
C          2.76944       -0.60188       -0.02181
C          3.31297        0.73202       -0.54597
C          4.82894        0.73745       -0.76700
C          5.36424        2.07255       -1.29448
C          6.88692        2.10498       -1.45914
C          7.40714        3.43504       -2.01190
C          8.92899        3.47917       -2.18161
C          9.42196        4.83222       -2.70364
C         10.89573        4.78250       -3.11251
N         11.42804        6.07905       -3.59542
C         11.29403        6.51389       -5.00847
C         10.77626        5.45566       -5.96442
C         11.83904        4.44403       -6.42012
C         11.22411        3.24411       -7.17079
C         10.39219        2.34052       -6.28511
C          8.99144        2.43104       -6.25735
C          8.23273        1.58734       -5.44017
C          8.86561        0.63403       -4.63890
C         10.26058        0.53641       -4.64999
C         11.01431        1.38574       -5.46290
O         10.39491        7.63321       -5.01860
C         10.99906        8.73966       -4.42828
N         11.68395        8.35790       -3.16711
C         11.67971        7.08201       -2.73104
N         11.98843        6.84035       -1.43937
C         12.31942        9.42938       -2.40632
C         11.58812        9.98649       -1.19865
C         10.33149        9.88671       -0.74804
Br         8.89184        8.96293       -1.56599
Br        12.77660       11.06578       -0.16040
H          0.90079       -1.55157        0.60188
H          0.70337       -0.35565       -0.69249
H          0.98830        0.18043        0.97411
H          3.01465       -1.40167       -0.74101
H          3.29501       -0.86507        0.91181
H          3.04721        1.53582        0.16336
H          2.80291        0.98628       -1.49200
H          5.10047       -0.06926       -1.47077
H          5.33549        0.49113        0.18283
H          5.05586        2.88361       -0.61151
H          4.88694        2.29964       -2.26423
H          7.20259        1.28570       -2.12706
H          7.36426        1.90036       -0.48492
H          7.08342        4.25751       -1.35001
H          6.93644        3.63035       -2.99132
H          9.23766        2.68388       -2.87829
H          9.41883        3.25307       -1.21824
H          9.26867        5.61634       -1.94367
H          8.82310        5.13405       -3.57782
H         11.04567        4.05044       -3.91335
H         11.53150        4.42170       -2.28927
H         12.29339        6.86465       -5.32964
H         10.40114        6.00825       -6.83776
H          9.90263        4.94877       -5.53114
H         12.42066        4.06644       -5.56285
H         12.56252        4.95250       -7.07636
H         12.04141        2.66179       -7.62142
H         10.60903        3.61402       -8.00596
H          8.48578        3.14982       -6.90654
H          7.14448        1.66397       -5.44196
H          8.27509       -0.03860       -4.01618
H         10.76141       -0.21378       -4.03648
H         12.10266        1.28655       -5.48322
H         10.20084        9.46118       -4.19874
H         11.75690        9.20875       -5.08706
H         11.80679        7.55806       -0.74441
H         12.03846        5.88573       -1.10917
H         12.51433       10.25658       -3.10878
H         13.30804        9.08107       -2.07009
H         10.01824       10.38246        0.16783
