45

C          0.89768        5.24002        3.88983
C          2.40443        5.28116        3.62408
C          2.75348        5.50452        2.14839
C          4.26027        5.56799        1.87692
C          4.59797        5.82520        0.40204
C          6.09247        6.04277        0.10892
C          6.93010        4.77551        0.26864
O          8.31576        4.96242       -0.10800
C          9.09994        5.57094        0.88696
C         10.51319        5.71230        0.38003
C         10.80371        5.29419       -0.90720
N         12.06018        5.42115       -1.40401
C         13.08934        5.94784       -0.69063
C         12.84316        6.36875        0.60928
C         11.55741        6.25913        1.16794
C         11.30952        6.79606        2.54329
C         11.05231        8.33393        2.51171
N         12.25356        9.05406        2.10459
I         14.94972        6.07810       -1.61364
H          0.68171        5.08077        4.95488
H          0.41452        4.42665        3.32852
H          0.41292        6.18081        3.59000
H          2.86599        4.33991        3.96836
H          2.86350        6.08162        4.22919
H          2.28330        6.44110        1.80053
H          2.30500        4.69938        1.54045
H          4.72450        4.62746        2.22083
H          4.70559        6.36993        2.49327
H          4.05207        6.72036        0.06443
H          4.21874        4.99437       -0.21784
H          6.47209        6.83843        0.77309
H          6.21994        6.40339       -0.92348
H          6.56474        3.98867       -0.40631
H          6.89093        4.37941        1.29856
H          9.10059        4.96408        1.81684
H          8.71369        6.57304        1.16320
H         10.05099        4.85600       -1.55875
H         12.24293        5.10441       -2.35669
H         13.65311        6.79694        1.19396
H         12.18373        6.60419        3.18223
H         10.44965        6.30098        3.01302
H         10.66930        8.61591        3.50795
H         10.25152        8.55285        1.79035
H         12.86861        9.23290        2.89839
H         12.02713        9.95660        1.69103
