66

C          1.63993        0.22227       -1.70851
C          2.48453        1.17395       -1.30123
C          2.39492        1.81651        0.04444
C          2.27673        3.34275        0.03507
C          2.69687        3.76234        1.44298
C          3.92481        2.90008        1.73146
N          3.64161        1.57020        0.98658
C          4.88262        0.98706        0.36772
C          4.81879       -0.53624        0.26549
O          6.09883       -0.91681       -0.18889
C          6.20583       -2.25096       -0.65442
C          7.25627       -2.31989       -1.77063
C          6.81931       -1.88641       -3.21909
C          6.32396       -0.42747       -3.53259
C          7.33224        0.74073       -3.31657
F          6.79262        1.85795       -3.88406
F          7.48947        0.98698       -1.98456
F          5.99735       -0.42604       -4.85184
F          5.17415       -0.17687       -2.82409
F          7.88083       -2.10781       -4.04321
F          5.79847       -2.71598       -3.58629
F          8.37288       -1.61516       -1.42965
F          7.61175       -3.63632       -1.89479
C          4.24842        2.61719        3.19277
C          4.64358        3.88823        3.95725
C          5.08116        3.55289        5.38762
S          5.99337        4.89072        6.19279
C          7.64312        4.66211        5.50944
S          8.01791        3.43246        4.43699
N          8.53287        5.57143        5.96812
C          8.22278        6.67537        6.88515
C          8.63148        8.00339        6.23963
O         10.00518        8.00464        5.87412
C         10.28889        6.94741        4.95823
C          9.93947        5.58015        5.54485
H          1.68375       -0.17534       -2.72205
H          0.86438       -0.18149       -1.05340
H          3.22716        1.57430       -1.99699
H          1.55650        1.37872        0.60589
H          1.25538        3.64421       -0.22619
H          2.95074        3.77009       -0.72370
H          1.89731        3.55557        2.17250
H          2.94193        4.82850        1.51493
H          4.80373        3.32347        1.22191
H          3.32864        0.90184        1.70306
H          5.72784        1.26347        1.01189
H          5.03812        1.44791       -0.61370
H          4.03142       -0.86183       -0.43456
H          4.59731       -0.97182        1.26444
H          5.24901       -2.63210       -1.04780
H          6.55345       -2.92616        0.14590
H          8.31084        0.53110       -3.77448
H          5.09479        1.91238        3.25970
H          3.37600        2.13542        3.67165
H          3.81601        4.61292        3.97822
H          5.48974        4.35905        3.43574
H          5.74006        2.67196        5.39852
H          4.22215        3.36953        6.04984
H          8.78148        6.52166        7.82306
H          7.15296        6.69101        7.12292
H          8.49477        8.82768        6.95232
H          7.99584        8.19065        5.35140
H         11.36433        7.00298        4.74479
H          9.72985        7.10137        4.01461
H         10.56735        5.37399        6.42741
H         10.08188        4.78001        4.80959
