54

C          8.66428        6.32441       -0.52946
C          9.03701        5.12246       -1.40088
C          7.81922        4.31858       -1.86991
C          8.17606        3.11467       -2.74883
C          6.94778        2.28278       -3.14237
C          7.22130        1.13557       -4.13363
C          8.21270        0.12286       -3.57670
O          8.23896       -1.16017       -4.29556
C          8.52045       -1.12894       -5.62350
S         10.40478       -0.84917       -5.93655
C         11.09947       -2.26978       -5.03245
C         12.53004       -1.96503       -4.56623
O         13.25329       -1.31043       -5.62855
C         13.87815       -2.14316       -6.53214
O         13.78076       -3.34913       -6.49109
C         14.66125       -1.36128       -7.55821
S         16.10795       -0.49019       -6.85644
C         12.57048       -1.05080       -3.34204
O         13.91271       -0.86727       -2.88258
C         14.40716       -1.88334       -2.09810
O         13.74228       -2.83121       -1.73860
C         15.86972       -1.66555       -1.80645
S         16.87490       -2.40637       -3.15080
N         10.66582       -1.22628       -7.53050
H          9.55663        6.87464       -0.20260
H          8.11961        6.01003        0.37295
H          8.02066        7.02988       -1.07494
H          9.71566        4.45695       -0.84015
H          9.60789        5.46636       -2.28024
H          7.13257        4.98147       -2.42436
H          7.25390        3.96890       -0.98850
H          8.90564        2.48733       -2.20657
H          8.69229        3.46631       -3.66058
H          6.19318        2.94381       -3.59591
H          6.47798        1.86719       -2.23521
H          7.58986        1.56602       -5.08035
H          6.27619        0.61446       -4.35442
H          7.93824       -0.17982       -2.55850
H          9.24129        0.52109       -3.54818
H          8.06936       -0.30716       -6.20378
H          8.29883       -2.10934       -6.07015
H         11.07364       -3.12716       -5.71895
H         10.41131       -2.44933       -4.19179
H         13.01050       -2.92823       -4.33782
H         14.03454       -0.56220       -7.97705
H         14.96007       -2.04463       -8.35978
H         16.76439       -1.60505       -6.45586
H         11.95321       -1.49135       -2.54416
H         12.21204       -0.04059       -3.58632
H         16.13121       -2.11510       -0.84327
H         16.11941       -0.59843       -1.80555
H         16.63686       -3.69514       -2.81049
H         10.74184       -0.39949       -8.12078
H         10.08696       -1.96415       -7.93523
