62

C          0.93133        0.69829        1.25150
C          1.91545        0.72104        0.54858
C          3.12146        0.77674       -0.26452
C          4.29666        1.44353        0.48241
C          5.57300        1.45132       -0.36914
C          6.69379        2.43589       -0.02143
N          7.36664        2.25286        1.35793
C          6.49955        2.63109        2.53850
C          7.15962        2.50206        3.91471
C          8.48325        3.23450        4.20305
C          8.46165        4.76844        4.01916
S          9.42305        5.25007        2.57868
O         10.83396        5.10489        2.84312
O          8.83580        4.59680        1.41435
O          9.05315        6.80750        2.43070
C          8.05889        0.92327        1.44003
C          9.09306        0.85691        0.31618
O          8.51360        1.08832       -0.95689
C          7.87165        2.37295       -1.02913
C          7.49983        2.57020       -2.49735
C          6.75927        3.88664       -2.76160
O          6.52595        4.67521       -1.83224
N          6.37702        4.14365       -4.04226
C          6.61560        3.24786       -5.17974
C          5.43518        2.31982       -5.48036
C          5.66145        5.40257       -4.31352
C          6.60252        6.56325       -4.63910
H          0.04997        0.66244        1.85696
H          2.91396        1.33313       -1.19457
H          3.40452       -0.24430       -0.57291
H          4.44197        0.89175        1.42338
H          4.00079        2.46943        0.75102
H          5.27732        1.74934       -1.38761
H          5.97081        0.43059       -0.47570
H          6.32181        3.46967       -0.02436
H          8.10496        2.99655        1.35073
H          5.60548        2.00278        2.51960
H          6.18449        3.66272        2.32916
H          7.29785        1.43861        4.16084
H          6.39535        2.85745        4.62432
H          9.31197        2.80157        3.61999
H          8.74667        3.02533        5.24819
H          8.92271        5.29386        4.86505
H          7.45310        5.17843        3.86996
H          9.84188        7.33665        2.66514
H          7.30038        0.13497        1.35629
H          8.55313        0.83632        2.41474
H          9.54417       -0.14312        0.28722
H          9.89797        1.59356        0.51297
H          8.59333        3.16114       -0.74107
H          6.92043        1.70506       -2.85176
H          8.44296        2.54888       -3.06404
H          7.52784        2.66493       -5.00090
H          6.83107        3.88069       -6.05344
H          5.22878        1.64758       -4.63569
H          5.65169        1.70089       -6.36147
H          4.52012        2.89048       -5.68828
H          5.06171        5.63889       -3.42595
H          4.97056        5.21392       -5.14764
H          7.25875        6.77908       -3.78645
H          6.02064        7.46823       -4.86039
H          7.22840        6.34573       -5.51589
