102

C          9.44682      -13.21592       -0.27087
C          9.40043      -11.74029       -0.67422
C          9.04183      -10.80960        0.49082
C          9.04850       -9.32641        0.10263
C          8.66919       -8.40505        1.26851
C          8.76114       -6.93069        0.86387
N          8.42628       -6.02548        1.99605
N          9.49215       -5.76054        2.76360
C          9.33299       -4.98880        3.83614
C          8.06180       -4.46483        4.18067
C          6.99126       -4.76532        3.37031
C          7.17275       -5.57342        2.23133
C          6.04787       -5.84793        1.28205
C          5.97598       -4.77319        0.16674
C          4.79053       -4.98469       -0.77995
C          4.75331       -3.95183       -1.91213
C          3.52365       -4.08252       -2.81793
C          3.53559       -3.10215       -3.99609
C          2.28010       -3.17745       -4.87104
C          2.32821       -2.24824       -6.08845
C          1.05296       -2.27876       -6.93729
C          1.14848       -1.44119       -8.21641
C         -0.13633       -1.43850       -9.05099
C         -0.01331       -0.64910      -10.35806
C         -1.29650       -0.62902      -11.19470
C         -1.15493        0.14798      -12.50742
C         -2.43331        0.18254      -13.35081
C         -2.27753        0.95910      -14.66224
C         -3.55317        1.01076      -15.50997
C         -3.38072        1.79461      -16.81379
C         10.55985       -4.72642        4.65760
C         10.50966       -5.44592        6.01803
C         11.74585       -5.12293        6.88393
N         11.42564       -5.48408        8.26361
C         12.21553       -4.79749        9.29361
C         11.82320       -5.30264       10.67075
O         12.10533       -6.70814       10.69691
O          9.34221       -5.03265        6.71285
H          9.69084      -13.85606       -1.12888
H          8.48005      -13.55397        0.13094
H         10.20799      -13.39496        0.50303
H          8.66880      -11.60097       -1.48778
H         10.37694      -11.44069       -1.09039
H          9.75290      -10.97072        1.31948
H          8.04784      -11.08345        0.88503
H          8.35413       -9.16217       -0.73956
H         10.05050       -9.05183       -0.26904
H          9.34264       -8.57648        2.12299
H          7.64833       -8.63544        1.61570
H          8.09693       -6.69283        0.02571
H          9.78624       -6.66513        0.58153
H          7.95940       -3.85780        5.07862
H          5.99059       -4.39074        3.58508
H          5.11284       -5.83150        1.86084
H          6.12514       -6.85137        0.84289
H          6.91815       -4.77381       -0.40688
H          5.90720       -3.77776        0.63484
H          3.85100       -4.93837       -0.20327
H          4.83618       -6.00066       -1.20863
H          5.66917       -4.04788       -2.52125
H          4.78057       -2.93557       -1.48199
H          2.61101       -3.92547       -2.21698
H          3.45869       -5.11492       -3.20362
H          4.42722       -3.29510       -4.61850
H          3.65160       -2.07241       -3.61457
H          1.39429       -2.93478       -4.25802
H          2.13366       -4.21695       -5.21367
H          3.19202       -2.52389       -6.71900
H          2.51904       -1.21340       -5.75363
H          0.20122       -1.92661       -6.32911
H          0.81855       -3.32404       -7.20604
H          1.98270       -1.81873       -8.83392
H          1.41516       -0.40173       -7.95534
H         -0.96303       -1.02349       -8.44785
H         -0.42473       -2.47969       -9.28031
H          0.80779       -1.07411      -10.96222
H          0.28832        0.38869      -10.13042
H         -2.11593       -0.19203      -10.59706
H         -1.60536       -1.66616      -11.41542
H         -0.33726       -0.29354      -13.10430
H         -0.83862        1.18255      -12.28511
H         -3.25073        0.62859      -12.75699
H         -2.75287       -0.85097      -13.57349
H         -1.46364        0.50880      -15.25808
H         -1.94927        1.98980      -14.43819
H         -4.36646        1.45938      -14.91443
H         -3.87978       -0.01817      -15.73798
H         -3.08940        2.83731      -16.61675
H         -4.31022        1.81544      -17.39952
H         -2.59900        1.34919      -17.44728
H         10.63843       -3.64392        4.84544
H         11.44314       -5.05201        4.09253
H         10.47192       -6.54014        5.83148
H         11.92495       -4.03581        6.85480
H         12.64682       -5.62123        6.47882
H         11.52389       -6.49144        8.41219
H         12.01499       -3.71678        9.23394
H         13.30424       -4.94662        9.15360
H         10.74871       -5.11553       10.84620
H         12.40567       -4.76225       11.43672
H         11.83725       -7.06645       11.55620
H          9.62270       -5.12206        7.66172
