50

C          4.55510        0.57635        2.87521
C          4.23983        1.15043        1.49394
N          2.80119        1.10397        1.16902
C          2.03770        2.17552        1.50028
O          2.50421        3.17560        2.06859
C          0.54276        2.14360        1.13545
C         -0.16738        3.39305        1.65471
C         -1.67492        3.42919        1.30499
C         -2.61570        2.90595        2.39370
C         -4.09502        2.85575        1.98302
C         -5.00492        2.18469        3.02459
C         -5.21983        3.02692        4.28703
S         -6.18982        2.09343        5.49116
O         -7.53008        1.89841        4.97979
O         -5.37959        0.99234        5.94629
O         -6.26667        3.17071        6.70490
N         -1.89893        4.88163        1.03553
C         -0.82586        5.60126        1.01439
C          0.40756        4.76409        1.15280
N          1.04017        4.88805       -0.14033
C          2.30640       -0.09571        0.48206
C          2.45980       -0.03242       -1.04026
H          5.63805        0.60715        3.05422
H          4.23148       -0.46983        2.96478
H          4.06282        1.16356        3.66053
H          4.76963        0.59401        0.70784
H          4.55564        2.19901        1.43656
H          0.06557        1.25073        1.56831
H          0.42505        2.04821        0.04306
H         -0.07343        3.41455        2.75128
H         -1.89321        2.90681        0.35583
H         -2.46575        3.50686        3.30518
H         -2.27767        1.88684        2.64090
H         -4.18340        2.29407        1.03921
H         -4.48082        3.87039        1.77360
H         -4.58035        1.20785        3.30410
H         -5.98282        1.98131        2.56599
H         -5.77760        3.95119        4.07911
H         -4.28572        3.28029        4.80788
H         -7.19879        3.45317        6.78042
H         -2.83396        5.25777        0.86682
H         -0.84874        6.67241        0.80857
H          1.09514        5.17348        1.90368
H          0.64613        4.30942       -0.87717
H          2.05170        4.79398       -0.09658
H          1.25815       -0.26968        0.75780
H          2.86633       -0.95253        0.88349
H          1.87350        0.79146       -1.47132
H          2.11370       -0.96923       -1.49708
H          3.50828        0.11476       -1.33084
