39

C          0.81563       -0.61102        1.83174
C          2.31078       -0.48478        2.13234
C          2.94834        0.75195        1.48681
C          4.44428        0.88466        1.79369
C          5.05094        2.12728        1.13513
N          6.50498        2.25566        1.44755
Si         7.72716        1.22142        0.49685
C          9.15381        2.35084        0.06214
C          8.25506       -0.22993        1.56630
C          6.83940        0.63926       -1.03832
C          6.89635        3.04799        2.44206
N          6.24527        4.20916        2.79279
C          5.54934        5.00856        1.95386
C          4.92874        5.76851        1.24932
N          7.97693        2.75166        3.19332
H          0.39024       -1.50670        2.30277
H          0.62899       -0.68426        0.75033
H          0.25685        0.25864        2.20735
H          2.83731       -1.38829        1.78135
H          2.46764       -0.44606        3.22340
H          2.42130        1.65841        1.83159
H          2.80002        0.71129        0.39378
H          4.97131       -0.02211        1.45336
H          4.60107        0.94357        2.88419
H          4.51935        3.02511        1.46839
H          4.94044        2.09149        0.04431
H          9.73213        2.68852        0.93094
H          8.80604        3.23448       -0.48987
H          9.84457        1.80104       -0.59405
H          8.96696        0.02759        2.36486
H          8.77426       -0.95947        0.92679
H          7.39699       -0.74365        2.01959
H          6.49273        1.47416       -1.66163
H          5.99219       -0.02679       -0.83172
H          7.56613        0.06790       -1.63524
H          6.38666        4.54399        3.74536
H          4.38488        6.43845        0.61565
H          8.34284        1.80624        3.20080
H          8.51903        3.47489        3.65223
