136

C          6.01384       -4.24005       10.65729
C          6.79735       -3.78731        9.42240
C          7.47505       -2.42558        9.60633
C          8.25958       -1.94531        8.38112
C          9.00312       -0.62782        8.62046
C          9.78597       -0.11761        7.40616
C         10.61067        1.13702        7.70941
C         11.38457        1.69120        6.50909
C         12.25021        2.90413        6.86524
C         12.99853        3.51516        5.67666
C         13.87909        4.70664        6.06716
C         14.57660        5.38156        4.88230
C         15.47854        6.54966        5.29394
C         16.09932        7.29941        4.11112
C         17.03384        8.43710        4.53549
C         17.57649        9.25556        3.36017
C         18.54076       10.36811        3.78513
C         18.98339       11.25834        2.61963
C         19.98979       12.34131        3.02533
C         20.32767       13.25612        1.84934
N         21.37103       14.26345        2.14868
C         20.98499       15.50228        2.82404
O         20.86088       16.55723        1.87854
C         22.09179       16.84064        1.23625
N         22.95243       15.63997        1.21364
C         22.49849       14.39241        1.41164
N         23.16312       13.34176        0.90443
C         23.23459       11.99995        1.46697
C         24.52319       11.37063        0.92458
O         25.30276       11.99717        0.22800
O         24.61236       10.10331        1.30525
C         25.78660        9.32423        0.86432
C         26.76761        9.14771        2.01063
C         27.88057        8.15495        1.64438
C         28.85113        7.88487        2.79993
C         29.90184        6.82008        2.46827
C         30.85516        6.51297        3.62780
C         31.88014        5.42070        3.30169
C         32.83152        5.11179        4.46033
C         22.89007       17.98078        1.88846
O         24.15652       18.07354        1.25353
C         24.25765       19.12760        0.26576
C         25.62991       19.06460       -0.37996
C         25.83727       20.18337       -1.40964
C         27.21855       20.14889       -2.07329
C         27.43001       21.27563       -3.09028
C         28.81238       21.25686       -3.75130
C         29.02552       22.39426       -4.75584
C         30.41181       22.38829       -5.41023
C         30.61294       23.52633       -6.41421
H          5.54926       -5.22407       10.50488
H          5.21158       -3.52858       10.90403
H          6.66844       -4.31524       11.53868
H          6.12219       -3.74518        8.55084
H          7.56305       -4.54173        9.17363
H          8.15575       -2.47690       10.47491
H          6.71198       -1.67151        9.86920
H          7.57146       -1.83240        7.52480
H          8.98554       -2.72275        8.08383
H          9.69808       -0.75795        9.46907
H          8.28326        0.14640        8.94005
H          9.08595        0.09007        6.57771
H         10.45688       -0.91540        7.04126
H         11.32122        0.91039        8.52416
H          9.94474        1.92462        8.10463
H         10.67464        1.96667        5.70936
H         12.02382        0.89689        6.08472
H         12.97812        2.61193        7.64275
H         11.61430        3.67981        7.32768
H         12.26933        3.83408        4.91113
H         13.62173        2.74106        5.19524
H         14.63784        4.37356        6.79721
H         13.26292        5.45487        6.59642
H         13.81392        5.74211        4.16953
H         15.17435        4.63450        4.33101
H         16.28112        6.17506        5.95346
H         14.89575        7.26111        5.90529
H         15.29257        7.70683        3.47643
H         16.65421        6.58879        3.47345
H         17.87646        8.02082        5.11517
H         16.49706        9.11077        5.22637
H         16.73006        9.69862        2.80661
H         18.08536        8.58441        2.64607
H         19.42808        9.92115        4.26626
H         18.06080       10.99454        4.55673
H         18.09450       11.73210        2.16840
H         19.42619       10.63118        1.82539
H         20.91148       11.87578        3.40993
H         19.57985       12.93905        3.85640
H         19.43298       13.80843        1.51763
H         20.66371       12.67460        0.98101
H         21.73347       15.73622        3.59823
H         20.00096       15.37202        3.28407
H         21.83147       17.10844        0.19833
H         23.92260       15.82528        0.95914
H         23.95560       13.52115        0.27588
H         22.38707       11.36590        1.16845
H         23.26523       12.02186        2.56704
H         26.23248        9.83300        0.00079
H         25.35742        8.36479        0.54790
H         26.22121        8.78049        2.89407
H         27.20089       10.12447        2.27975
H         28.44123        8.52840        0.77067
H         27.42349        7.20107        1.32860
H         28.27668        7.56387        3.68656
H         29.35328        8.82484        3.08738
H         30.48666        7.14268        1.58910
H         29.38956        5.89009        2.16453
H         30.26759        6.20720        4.51170
H         31.38482        7.43596        3.92299
H         32.46393        5.72495        2.41640
H         31.34617        4.50095        3.00824
H         33.41111        6.00122        4.74993
H         33.54753        4.32291        4.19275
H         32.28150        4.77255        5.35088
H         23.05568       17.75901        2.95529
H         22.30876       18.91357        1.81471
H         24.10348       20.09840        0.77003
H         23.46315       19.01236       -0.49545
H         25.75739       18.08167       -0.86393
H         26.39612       19.13034        0.40883
H         25.69563       21.16185       -0.91935
H         25.05784       20.11869       -2.18874
H         27.36147       19.17372       -2.57112
H         27.99828       20.20820       -1.29421
H         27.27937       22.24872       -2.59050
H         26.65109       21.21453       -3.87077
H         28.96175       20.28771       -4.25949
H         29.59061       21.31021       -2.96958
H         28.86812       23.36265       -4.24852
H         28.25162       22.33808       -5.54187
H         30.57131       21.41966       -5.91378
H         31.18329       22.44951       -4.62398
H         29.88431       23.46816       -7.23640
H         31.61721       23.49988       -6.85851
H         30.48915       24.50861       -5.93410
