59

C          4.74537        3.45792       -6.32343
C          4.83006        2.62172       -5.04405
C          6.11741        2.87965       -4.25350
C          6.22543        2.10330       -2.93634
N          6.22269        0.63825       -3.10901
C          7.31690       -0.05505       -3.43464
O          8.44989        0.43133       -3.58487
C          7.16664       -1.58102       -3.66105
N          8.57195       -2.08603       -3.69410
C          9.08149       -2.53733       -2.34415
C         10.61237       -2.64069       -2.41315
N         11.11381       -3.40048       -3.54353
C         10.54310       -3.00721       -4.82465
C          8.97643       -2.98676       -4.86390
C          8.24364       -4.34277       -5.01749
C          8.26227       -5.30946       -3.81844
O          7.94716       -6.59484       -4.33846
C          6.80863       -4.26074       -5.59690
C          6.67655       -3.55890       -6.95061
C         11.17606       -3.81989       -5.95739
C         10.81672       -3.31366       -7.36888
C         11.45673       -4.12094       -8.44361
C         10.82535       -4.88944       -9.33796
F          9.49550       -5.01903       -9.37561
F         11.41517       -5.59999      -10.28195
F         12.81293       -4.06902       -8.49210
H          3.81748        3.25416       -6.87325
H          5.58727        3.24413       -6.99798
H          4.76824        4.53354       -6.09734
H          4.76109        1.55154       -5.30654
H          3.95818        2.83721       -4.40299
H          6.18877        3.94959       -3.99904
H          6.99930        2.65674       -4.87535
H          5.38375        2.33896       -2.27042
H          7.15478        2.36366       -2.41342
H          5.33628        0.14722       -3.04607
H          6.69350       -1.75941       -4.63370
H          6.58631       -2.08906       -2.88212
H          9.06063       -1.14610       -3.84922
H          8.59625       -3.48611       -2.09098
H          8.77456       -1.77346       -1.61659
H         10.98485       -3.07865       -1.47793
H         11.02476       -1.61750       -2.47032
H         11.08560       -4.40762       -3.39310
H         10.84253       -1.94928       -4.97511
H          8.69587       -2.38094       -5.73901
H          8.83917       -4.85851       -5.79010
H          7.51383       -4.99928       -3.06106
H          9.25086       -5.32492       -3.32834
H          7.87465       -7.22822       -3.60819
H          6.11944       -3.81666       -4.85937
H          6.47211       -5.30009       -5.70765
H          6.92601       -2.48594       -6.92189
H          5.64540       -3.63100       -7.31961
H          7.32360       -4.02611       -7.70697
H         10.90561       -4.88456       -5.86653
H         12.26425       -3.76492       -5.81665
H         11.13681       -2.26245       -7.47684
H          9.73216       -3.33415       -7.54434
