69

C          1.63433        2.93989        1.79076
C          2.95663        2.22140        1.51543
C          3.47605        2.44515        0.09204
C          4.80436        1.73997       -0.19761
C          5.31762        1.98417       -1.61907
C          6.66152        1.31043       -1.91622
C          7.15970        1.61001       -3.33439
C          8.52199        1.00688       -3.62645
O          8.92213        1.42441       -4.95475
C         10.25672        1.09780       -5.27938
N         10.63403        1.83314       -6.47836
C         10.10858        1.43928       -7.65920
N         10.43308        1.97105       -8.84549
C          9.81722        1.18684       -9.93006
C          8.72215        0.37662       -9.19322
N          9.20336        0.44959       -7.78603
C          8.53227       -1.05208       -9.69354
C          7.40339       -1.80033       -8.97867
C          7.21409       -3.23498       -9.48176
C          6.14210       -4.00544       -8.70351
N          6.51970       -4.14203       -7.28712
C         11.23891        3.17363       -6.32984
C         12.71851        3.26449       -6.71320
O         12.89917        3.30866       -8.14032
C         13.21205        4.60245       -8.64534
C         13.24064        4.51873      -10.16829
F         12.04028        4.07251      -10.65166
F         13.46722        5.74155      -10.68732
F         14.19099        3.67573      -10.61806
H          1.28608        2.76491        2.81751
H          0.84415        2.59468        1.10757
H          1.73632        4.02692        1.65477
H          2.83401        1.13942        1.69092
H          3.71936        2.56096        2.23616
H          3.59366        3.52898       -0.08481
H          2.71497        2.10226       -0.63090
H          4.68881        0.65505       -0.02937
H          5.56373        2.08108        0.52772
H          5.41548        3.07087       -1.78740
H          4.56497        1.63165       -2.34551
H          6.56860        0.22050       -1.77294
H          7.41028        1.65494       -1.18206
H          7.22469        2.70019       -3.48082
H          6.43359        1.23422       -4.07331
H          8.49741       -0.09699       -3.57361
H          9.27474        1.36520       -2.89920
H         10.37876        0.01491       -5.47062
H         10.95190        1.38761       -4.47196
H         11.31892        2.47789       -8.95409
H         10.56694        0.51919      -10.38414
H          9.40752        1.84211      -10.70704
H          7.76030        0.91590       -9.24671
H          8.56499        0.27422       -7.01216
H          9.48548       -1.59574       -9.58446
H          8.32067       -1.00094      -10.77501
H          6.45813       -1.24460       -9.10819
H          7.59418       -1.84721       -7.89443
H          8.17199       -3.77991       -9.40975
H          6.94337       -3.22978      -10.55014
H          5.96026       -4.97216       -9.20864
H          5.19333       -3.44711       -8.74335
H          7.24907       -4.85093       -7.18795
H          5.72653       -4.47816       -6.74056
H         11.12204        3.44840       -5.27361
H         10.65487        3.90050       -6.91541
H         13.26995        2.38662       -6.34549
H         13.15580        4.16136       -6.24728
H         14.20430        4.93839       -8.30119
H         12.45556        5.35656       -8.36765
