59

C          2.41769       -0.52013        1.33905
Si         4.11941        0.10467        0.88807
N          3.95365        1.67777       -0.05836
C          3.78006        2.02489       -1.34066
N          4.19824        3.20878       -1.90435
C          3.82335        3.17209       -3.23094
N          3.22037        2.05964       -3.53186
N          3.19148        1.34405       -2.35547
C          2.42847        0.09762       -2.34074
C          0.92221        0.37658       -2.23603
C          0.13009       -0.92250       -2.31870
C         -1.41407       -0.81112       -2.05325
C         -2.28203        0.16728       -2.93654
C         -2.25847       -0.01264       -4.49780
F         -2.46505       -1.29052       -4.84289
F         -3.21731        0.75252       -5.03726
F         -1.06374        0.39022       -4.99209
F         -3.56048        0.02323       -2.52307
F         -1.87961        1.44742       -2.67034
F         -1.94292       -2.05146       -2.14566
F         -1.55949       -0.37008       -0.76635
F          0.32330       -1.52775       -3.53004
F          0.59728       -1.80319       -1.36333
C          4.88098        4.30569       -1.21385
C          3.86595        5.31004       -0.64130
C          4.48864        6.47797        0.14033
C          4.51189        6.36314        1.71200
C          5.31228        5.20393        2.41975
C          6.87246        5.11301        2.24458
F          7.45988        6.28066        2.50653
F          7.33913        4.17476        3.08379
F          7.18410        4.73233        0.98050
F          5.05975        5.30455        3.73799
F          4.79040        3.99769        1.98015
F          4.96293        7.53276        2.21362
F          3.21411        6.18556        2.10332
F          5.76393        6.73620       -0.29405
F          3.74454        7.59689       -0.10426
C          5.04683        0.68504        2.40358
C          5.14793       -1.07864       -0.13406
H          1.82448        0.27824        1.80636
H          2.52980       -1.32281        2.08350
H          1.84249       -0.93817        0.50499
H          4.28667        2.46077        0.50310
H          4.02815        3.97385       -3.93358
H          2.77892       -0.51805       -1.50853
H          2.67180       -0.42471       -3.27406
H          0.60975        1.03639       -3.05532
H          0.68338        0.87149       -1.28433
H          5.54298        4.78979       -1.94149
H          5.53128        3.86858       -0.44723
H          3.12389        4.80987       -0.00427
H          3.31154        5.77152       -1.47068
H          4.47807        1.42349        2.98528
H          6.02919        1.11067        2.15625
H          5.22055       -0.17907        3.06112
H          4.66971       -1.42930       -1.05698
H          5.35454       -1.97034        0.47650
H          6.11505       -0.62856       -0.39675
