44

C          3.59489       -0.32844        2.31879
C          3.08191       -0.44446        0.90200
O          3.50510       -1.75067        0.30045
C          4.70402       -1.78752       -0.22950
O          5.53993       -0.94714       -0.39341
S          4.97954       -3.60121       -0.76083
C          4.28387       -3.60849       -2.56939
C          4.53497       -2.25957       -3.26121
C          4.11665       -2.15187       -4.76055
C          2.65131       -1.73352       -4.94596
C          5.04037       -1.14408       -5.46116
C          5.04923       -4.74982       -3.26011
O          5.10886       -5.86497       -2.37745
C          2.81688       -3.97779       -2.32984
C          6.78407       -3.52272       -0.90419
C          7.31976       -3.40243        0.52484
O          6.59730       -3.23397        1.48838
O          8.64725       -3.49806        0.53233
C          9.28361       -3.36293        1.84043
H          3.20796        0.60545        2.75040
H          4.69055       -0.28711        2.35200
H          3.24384       -1.16185        2.93969
H          3.45008        0.35321        0.24537
H          1.98952       -0.50462        0.84930
H          5.61084       -2.03547       -3.19667
H          4.01484       -1.46060       -2.71016
H          4.26441       -3.12894       -5.24955
H          2.47166       -0.74791       -4.48977
H          1.93503       -2.43977       -4.50818
H          2.41349       -1.64931       -6.01478
H          4.95941       -0.14916       -4.99753
H          4.76742       -1.03954       -6.51950
H          6.09347       -1.45519       -5.41319
H          6.05812       -4.40839       -3.55509
H          4.49610       -4.99523       -4.18208
H          5.37296       -6.65772       -2.87012
H          2.28040       -3.19626       -1.77686
H          2.72922       -4.92773       -1.78865
H          2.32347       -4.09899       -3.30277
H          7.08788       -2.65561       -1.50549
H          7.10959       -4.45644       -1.37972
H         10.35071       -3.50093        1.65034
H          8.89944       -4.13085        2.52136
H          9.08103       -2.36560        2.24770
