48

C          1.27703        0.28877       -0.93785
C          2.68703        0.56141       -0.40991
C          3.09450       -0.37024        0.73808
C          4.52083       -0.11751        1.23611
C          4.92049       -1.03459        2.39886
C          6.36478       -0.80481        2.84910
O          7.31790       -1.01495        1.77084
C          7.48046       -2.37925        1.61901
N          7.39395       -2.94634        3.05451
C          6.92028       -1.74953        3.95782
C          8.16765       -1.24129        4.65854
C          8.92186       -0.19763        4.30751
C          5.90409       -2.29125        4.97208
C          5.38384       -1.22165        5.95826
C          4.33128       -1.80839        6.87313
C          2.97108       -1.70606        6.54907
C          1.99897       -2.29333        7.36226
C          2.37789       -2.99188        8.51170
C          3.73088       -3.09557        8.84654
C          4.70058       -2.50653        8.03217
H          1.01651        0.97770       -1.75183
H          0.52234        0.41035       -0.14699
H          1.18562       -0.73548       -1.32844
H          2.75852        1.60695       -0.06715
H          3.41578        0.46219       -1.23185
H          3.00312       -1.42013        0.40645
H          2.38284       -0.25449        1.57424
H          4.62116        0.93320        1.55819
H          5.23001       -0.24704        0.40342
H          4.74973       -2.08895        2.11448
H          4.25638       -0.85224        3.25775
H          6.49637        0.24225        3.14968
H          8.46448       -2.59477        1.18603
H          6.68105       -2.87370        1.04241
H          8.30801       -3.27689        3.38482
H          6.72719       -3.72658        3.10834
H          8.44013       -1.82095        5.54807
H          8.71478        0.42301        3.43481
H          9.79470        0.07342        4.90137
H          6.37836       -3.09627        5.55776
H          5.04806       -2.74302        4.44629
H          4.96039       -0.37049        5.40430
H          6.22460       -0.82460        6.54624
H          2.66672       -1.14982        5.65852
H          0.94416       -2.19896        7.10239
H          1.61963       -3.44554        9.15034
H          4.03147       -3.63015        9.74835
H          5.75546       -2.58199        8.30867
