64

C          6.47203        4.34689        2.86428
C          5.20187        3.65342        3.30965
O          5.18277        2.32735        2.73269
C          4.09187        1.51371        3.14102
C          4.34102        0.14793        2.50320
N          5.80102       -0.19238        2.68769
C          6.15084       -0.66031        4.07771
C          7.67408       -0.66728        4.20697
N          8.30860       -1.56402        3.26154
C          7.93524       -1.23320        1.89458
C          6.42067       -1.03544        1.56447
C          5.59349       -2.24475        1.09676
C          5.65028       -3.61707        1.77118
O          5.09405       -3.68631        3.12267
C          3.75571       -3.51974        3.31946
O          2.96871       -3.16531        2.46545
C          3.39683       -3.80338        4.76332
S          3.17999       -2.24955        5.70961
C          5.03802       -4.69899        0.86469
O          5.93820       -4.89065       -0.24207
C          6.74399       -6.00882       -0.17839
O          6.74317       -6.78455        0.74957
C          7.58250       -6.13092       -1.42604
S          6.62485       -6.93142       -2.76761
C          8.40287       -2.96015        3.69870
C          9.46089       -3.76939        2.93046
C         10.88701       -3.39039        3.32660
O         11.85977       -4.01945        2.51281
O          9.23329       -5.17457        3.08580
H          6.50910        5.36053        3.28421
H          6.51317        4.43140        1.77052
H          7.36377        3.80652        3.21083
H          4.30467        4.19958        2.97166
H          5.15404        3.56390        4.40995
H          3.12583        1.90691        2.77922
H          4.03663        1.45287        4.24422
H          4.16351        0.20406        1.42193
H          3.71403       -0.63977        2.93503
H          6.23665        0.75264        2.60028
H          5.71426       -1.65348        4.22092
H          5.68089        0.03331        4.78536
H          7.94826       -0.95213        5.23130
H          8.05517        0.36019        4.04756
H          8.33656       -1.97953        1.19768
H          8.43644       -0.28118        1.64286
H          6.38948       -0.33749        0.71266
H          5.96608       -2.43774        0.07744
H          4.54211       -1.95724        0.96301
H          6.69086       -3.92110        1.94065
H          4.19791       -4.35147        5.27112
H          2.47149       -4.38912        4.80066
H          2.02005       -1.87982        5.11566
H          4.07502       -4.39538        0.43848
H          4.93382       -5.63626        1.42738
H          8.48816       -6.70366       -1.20131
H          7.85270       -5.14287       -1.81764
H          6.56118       -8.15055       -2.18111
H          7.45074       -3.52019        3.66957
H          8.69865       -2.92531        4.76121
H          9.35768       -3.60996        1.84422
H         11.03283       -3.63427        4.40172
H         11.03155       -2.30591        3.21415
H         11.68249       -4.97532        2.52912
H          9.35125       -5.41129        4.02202
