75

C         14.13954        0.85023        5.40293
C         13.40864        1.94774        4.62786
C         11.88860        1.76536        4.59759
C         11.14280        2.87675        3.84822
C          9.62105        2.75763        3.99570
C          8.81840        3.87441        3.35467
O          8.82281        3.70590        1.91348
C          8.13877        4.71406        1.21958
N          8.90833        5.95927        1.09129
C         10.08627        6.00777        0.42450
N         10.66002        7.18750        0.14548
C         12.00865        7.32985       -0.43829
C         12.80877        6.02747       -0.29692
C         11.86765        4.90486       -0.80711
N         10.66284        4.87186        0.02450
C         12.51840        3.52658       -0.94984
O         13.48393        3.35768       -1.65823
O         11.85418        2.58072       -0.25778
C         12.36424        1.20225       -0.36733
C         13.41986        0.92363        0.68907
C         13.92098       -0.52584        0.65016
C         14.99287       -0.79145        1.71093
C         13.36106        5.83998        1.13216
C         14.38377        4.71051        1.29641
C         15.12895        4.75096        2.63364
C         16.14936        3.61487        2.76287
C         16.84231        3.54180        4.12559
C         17.78742        2.34145        4.25359
C         18.43178        2.21740        5.63570
H         15.22669        1.00254        5.38716
H         13.93824       -0.14424        4.97790
H         13.82257        0.82570        6.45562
H         13.79337        1.98692        3.59607
H         13.64352        2.92957        5.07174
H         11.51186        1.71672        5.63411
H         11.64219        0.78837        4.14540
H         11.42641        2.86219        2.78169
H         11.46645        3.85789        4.23989
H          9.36430        2.75182        5.06773
H          9.26564        1.79511        3.59360
H          9.24751        4.86001        3.61383
H          7.76830        3.85184        3.69490
H          7.18542        4.98453        1.70158
H          7.93951        4.31682        0.21438
H          8.62922        6.77099        1.63080
H         10.10097        8.02565        0.26361
H         12.51685        8.14891        0.08858
H         11.90724        7.61681       -1.49607
H         13.65153        6.08560       -1.00147
H         11.57362        5.16029       -1.84046
H         10.40518        4.00160        0.49720
H         12.75630        1.06918       -1.38426
H         11.46872        0.58332       -0.23063
H         12.99928        1.14313        1.68312
H         14.27197        1.60408        0.53800
H         14.32769       -0.74570       -0.35024
H         13.07345       -1.21586        0.79612
H         15.86125       -0.12981        1.57642
H         15.35298       -1.82704        1.66099
H         14.60234       -0.62365        2.72505
H         12.53768        5.69876        1.85384
H         13.84104        6.79217        1.41263
H         15.11088        4.74941        0.46859
H         13.88332        3.73455        1.21583
H         14.40241        4.69024        3.46215
H         15.63896        5.72328        2.74575
H         16.90872        3.71718        1.96832
H         15.64433        2.65274        2.56866
H         16.07939        3.49082        4.92175
H         17.40400        4.47426        4.30852
H         18.57317        2.41430        3.48303
H         17.22779        1.41822        4.02260
H         19.02532        3.10988        5.88255
H         19.10191        1.34887        5.69090
H         17.67116        2.10024        6.42275
