46

C          1.48053       -0.31967       -2.30748
C          2.60675        0.38797       -2.44052
C          3.21187        1.19952       -1.32588
N          4.60745        0.82630       -1.06523
N          5.59604        1.78641       -0.99671
C          6.68551        1.12001       -0.71116
N          6.42567       -0.22929       -0.59662
C          5.10090       -0.40918       -0.81165
N          4.40832       -1.55492       -0.72465
C          5.06812       -2.87846       -0.65198
C          5.85088       -3.24315       -1.89600
C          7.24599       -3.35611       -1.84835
C          7.95615       -3.67400       -3.00811
C          7.27861       -3.87988       -4.21057
C          5.87979       -3.77891       -4.28184
C          5.18295       -3.45765       -3.10872
C          5.14169       -4.01765       -5.57410
C          8.05005        1.70781       -0.54186
C          9.11317        0.71355       -0.07762
O          8.94531       -0.49820        0.01796
O         10.24762        1.35132        0.18349
C         11.40019        0.54683        0.63432
C         11.41379        0.42522        2.14529
H          1.04600       -0.85944       -3.14826
H          0.93327       -0.35476       -1.36224
H          3.13190        0.42504       -3.39965
H          2.63139        1.09870       -0.39542
H          3.25429        2.26635       -1.58567
H          7.19503       -0.88687       -0.39303
H          3.47767       -1.51943       -1.13957
H          4.25990       -3.59632       -0.46074
H          5.71669       -2.89236        0.23654
H          7.77971       -3.21881       -0.90437
H          9.04168       -3.77001       -2.97134
H          7.84152       -4.13524       -5.11012
H          4.09102       -3.39065       -3.14456
H          5.81801       -4.35660       -6.36774
H          4.64648       -3.10005       -5.92535
H          4.35907       -4.77970       -5.44944
H          8.01076        2.54959        0.16409
H          8.39004        2.14034       -1.49661
H         12.26025        1.11155        0.25719
H         11.35029       -0.42932        0.13672
H         11.41740        1.41311        2.62325
H         12.32703       -0.10273        2.45278
H         10.55354       -0.14956        2.51141
