48

C          4.74222       -5.46009       -6.85876
C          4.05082       -4.15315       -6.46653
C          4.92394       -3.25041       -5.58886
C          4.23763       -1.93525       -5.20376
C          5.05006       -1.03152       -4.26584
C          6.34610       -0.48402       -4.87608
C          7.06300        0.50321       -3.94856
C          8.37953        1.03911       -4.48515
O          8.19339        1.75254       -5.77160
C          7.86303        3.03765       -5.70176
O          7.68921        3.70455       -4.70148
C          7.74289        3.63997       -7.12506
C          6.52819        4.48194       -7.25212
N          5.37006        4.13945       -7.83794
C          5.02732        2.86801       -8.52219
C          5.77452        2.68280       -9.75555
C          6.38702        2.51424      -10.78284
N          4.44660        5.13694       -7.77840
C          5.05327        6.10452       -7.13714
N          6.34225        5.75088       -6.79365
C          7.29318        6.55131       -6.07327
C          7.35600        7.87241       -6.22804
H          4.09456       -6.08496       -7.48834
H          5.00996       -6.05010       -5.96980
H          5.66895       -5.26923       -7.42036
H          3.11135       -4.37592       -5.93390
H          3.75925       -3.60120       -7.37647
H          5.86975       -3.04716       -6.11978
H          5.20187       -3.79632       -4.66989
H          3.27472       -2.16611       -4.71974
H          3.98468       -1.37422       -6.12222
H          5.29183       -1.58644       -3.34312
H          4.41921       -0.18289       -3.95084
H          6.11166        0.00964       -5.83627
H          7.03040       -1.31219       -5.12155
H          7.30232        0.00702       -2.99273
H          6.40189        1.34604       -3.69049
H          9.07483        0.23387       -4.75156
H          8.85717        1.73385       -3.78338
H          7.74078        2.85665       -7.89170
H          8.63651        4.26248       -7.28820
H          3.94607        2.93118       -8.70839
H          5.20144        2.04125       -7.81587
H          6.91474        2.35924      -11.70294
H          4.60174        7.05562       -6.87603
H          7.89850        5.97039       -5.37864
H          6.73431        8.42197       -6.93539
H          8.06137        8.44547       -5.62952
