97

C          1.04535        0.45950       -0.14101
C          2.55686        0.24385       -0.24551
C          3.10019       -0.76933        0.76899
C          4.59960       -1.04069        0.60955
C          5.16209       -2.04358        1.62367
C          6.61495       -2.43163        1.33438
C          7.20335       -3.45774        2.31257
C          8.58619       -3.94806        1.85525
C          9.36440       -4.99730        2.68378
C          9.87676       -4.47912        4.02944
N          8.81689       -4.49266        5.12043
C          9.33872       -3.87376        6.38909
C          8.26886       -3.69032        7.46758
O          8.84506       -2.81192        8.40085
C          8.07099       -2.66902        9.60144
C          8.86977       -1.79845       10.56216
O          8.10183       -1.74985       11.75308
C          8.65013       -1.11990       12.85405
C          7.88937       -1.18598       14.02894
C          8.36242       -0.59479       15.19231
C          9.59411        0.08915       15.23702
C         10.33111        0.13763       14.04963
C          9.87607       -0.45348       12.86230
C         10.08436        0.71245       16.55200
C          9.05963        1.73656       17.14308
C          8.58972        3.04128       16.43102
C          9.73143        4.04464       16.17060
C          7.84969        2.77213       15.10627
C          7.59559        3.70433       17.41086
C         10.19946       -0.42768       17.59924
C         11.49224        1.32348       16.41967
C          8.27825       -5.89557        5.30861
C          7.68726       -6.42312        4.00658
C          8.66787       -6.37945        2.81686
C          9.65943       -7.57456        2.90555
C         10.68915       -7.61803        1.81354
C         10.54156       -8.05410        0.55895
Br         8.90113       -8.74365       -0.08668
Br        12.43820       -6.97870        2.28950
H          0.69499        1.19821       -0.87433
H          0.75869        0.82173        0.85741
H          0.49491       -0.47531       -0.32438
H          3.07890        1.20621       -0.11043
H          2.81022       -0.09519       -1.26433
H          2.54722       -1.71986        0.66498
H          2.89280       -0.40982        1.79249
H          5.15753       -0.09129        0.68620
H          4.78820       -1.41837       -0.41071
H          4.53806       -2.95493        1.61722
H          5.07883       -1.62495        2.64249
H          7.25060       -1.52985        1.32570
H          6.67669       -2.85168        0.31579
H          6.49923       -4.30117        2.39905
H          7.24797       -2.98257        3.31594
H          9.24434       -3.07160        1.72957
H          8.47065       -4.37113        0.84459
H         10.28874       -5.16343        2.10816
H         10.22868       -3.44177        3.94965
H         10.70413       -5.09314        4.41266
H          8.03443       -3.90898        4.78002
H          9.74417       -2.88806        6.12472
H         10.16507       -4.50241        6.74546
H          8.00115       -4.65227        7.94500
H          7.33922       -3.26719        7.02541
H          7.88963       -3.65806       10.05886
H          7.09442       -2.20453        9.37712
H          9.02081       -0.79026       10.13594
H          9.86107       -2.25193       10.74102
H          6.93320       -1.70974       14.01142
H          7.74559       -0.66290       16.08936
H         11.29084        0.65186       14.02362
H         10.49018       -0.38034       11.96529
H          9.47110        2.03916       18.12178
H          8.14352        1.17040       17.38239
H         10.38675        3.72488       15.35032
H         10.35334        4.19711       17.06480
H          9.31343        5.02185       15.88679
H          8.51150        2.35349       14.33760
H          7.43349        3.71232       14.71363
H          7.01469        2.07015       15.24470
H          8.08023        3.94993       18.36752
H          6.74406        3.04188       17.62649
H          7.19629        4.63773       16.98799
H          9.22654       -0.89069       17.81231
H         10.59791       -0.03801       18.54733
H         10.87682       -1.21486       17.23974
H         11.56689        2.08312       15.63371
H         12.23898        0.54436       16.20831
H         11.77724        1.80404       17.36557
H          7.52184       -5.85758        6.10103
H          9.12591       -6.49457        5.67102
H          6.77596       -5.85318        3.77442
H          7.35510       -7.45578        4.18972
H          8.07940       -6.52958        1.89948
H          9.06499       -8.50032        2.85008
H         10.17865       -7.59428        3.87413
H         11.33470       -8.06521       -0.18386
