87

C          1.22758       -3.07155       -5.44878
C          2.74202       -2.91025       -5.30004
C          3.14590       -2.30308       -3.95020
C          4.66396       -2.14592       -3.80339
C          5.02952       -1.54695       -2.44069
N          6.48609       -1.47431       -2.22191
C          7.32389       -2.33618       -1.59584
C          6.94028       -3.56498       -0.85460
C          6.67411       -4.79393       -1.76152
C          7.86590       -5.19142       -2.63675
C          7.59372       -6.43659       -3.48756
C          8.81497       -6.86260       -4.31003
C          8.50562       -8.04651       -5.22361
O          9.69498       -8.52653       -5.89013
C         10.02696       -7.88888       -7.05572
O          9.38691       -6.96427       -7.52361
C         11.25141       -8.49527       -7.63242
C         11.76425       -8.05264       -8.78573
N          8.58746       -1.90178       -1.77149
N          8.54620       -0.79578       -2.49098
N          7.29231       -0.53320       -2.77898
C          6.86372        0.73905       -3.39050
C          6.62626        1.82611       -2.33529
C          6.25950        3.16690       -2.98384
C          6.10535        4.28871       -1.94846
C          5.75536        5.64426       -2.57214
C          5.65054        6.77388       -1.54144
C          5.30871        8.13395       -2.15915
C          5.23169        9.26958       -1.13304
C          4.88067       10.62852       -1.74756
C          4.81546       11.76686       -0.72399
C          4.44819       13.12299       -1.33535
C          4.36932       14.26033       -0.31094
C          3.99472       15.60979       -0.93019
H          0.97085       -3.49867       -6.42659
H          0.71033       -2.10485       -5.36248
H          0.81734       -3.73903       -4.67727
H          3.13017       -2.27545       -6.11358
H          3.23369       -3.89020       -5.41693
H          2.76265       -2.93696       -3.13213
H          2.65786       -1.32048       -3.82881
H          5.05683       -1.50864       -4.61171
H          5.15942       -3.12341       -3.90898
H          4.64349       -2.16351       -1.61841
H          4.61985       -0.53638       -2.30741
H          6.05977       -3.35731       -0.22777
H          7.77865       -3.77785       -0.17668
H          5.78460       -4.61049       -2.38612
H          6.40447       -5.62519       -1.09272
H          8.74566       -5.36547       -1.99463
H          8.14569       -4.35780       -3.30424
H          6.74265       -6.23895       -4.16262
H          7.27803       -7.26708       -2.83291
H          9.64307       -7.13702       -3.63748
H          9.16458       -6.02068       -4.92722
H          7.75673       -7.77270       -5.98093
H          8.14530       -8.91039       -4.64813
H         11.70183       -9.31596       -7.07300
H         11.28839       -7.23204       -9.32520
H         12.66030       -8.49706       -9.21728
H          5.97551        0.53701       -4.00310
H          7.68884        1.00415       -4.06366
H          7.54499        1.93403       -1.73846
H          5.82859        1.51158       -1.64211
H          5.32432        3.06086       -3.56005
H          7.04047        3.44642       -3.71125
H          7.04442        4.38187       -1.37650
H          5.32858        4.00871       -1.21591
H          4.80284        5.55991       -3.12363
H          6.51930        5.90716       -3.32411
H          6.60479        6.85288       -0.99159
H          4.88792        6.51233       -0.78698
H          4.34656        8.06001       -2.69606
H          6.06306        8.38584       -2.92531
H          6.19753        9.34714       -0.60306
H          4.48438        9.01459       -0.36088
H          3.91069       10.55232       -2.27018
H          5.62268       10.87958       -2.52613
H          5.78895       11.85022       -0.20888
H          4.08152       11.51030        0.06042
H          3.47864       13.03675       -1.85766
H          5.18605       13.38508       -2.11436
H          5.33910       14.34894        0.20809
H          3.63438       13.99575        0.46857
H          4.72802       15.91813       -1.69040
H          3.95023       16.40333       -0.17160
H          3.01096       15.56475       -1.42113
