88

C          1.33144       -0.25370      -11.15148
C          2.00294        0.25956       -9.87669
C          3.28635        1.05109      -10.14769
C          3.98375        1.52861       -8.87163
C          5.27846        2.30331       -9.14042
C          6.03268        2.70681       -7.88354
O          6.43281        1.50757       -7.12733
C          7.69050        1.07797       -7.25900
O          8.58808        1.61197       -7.88160
C          7.85800       -0.25176       -6.50861
N          9.25296       -0.63443       -6.37344
C         10.16263       -0.68578       -7.38278
N         11.36233       -0.12406       -7.18691
C         12.53196       -0.27334       -8.09017
C         13.81719       -0.58427       -7.32988
C         15.05960       -0.22788       -8.16507
C         15.35011        1.27816       -8.11780
S         16.56576        1.84537       -9.33255
C         15.54039        2.21853      -10.75911
S         13.87712        1.99442      -10.78316
N         16.24519        2.70295      -11.80512
C         17.69329        2.97007      -11.75798
C         18.54500        1.80049      -12.25428
C         15.58357        3.01925      -13.08303
C         15.10506        4.46881      -13.15817
O         12.25379       -1.33521       -8.98278
C         10.97854       -1.15272       -9.56545
N          9.92749       -1.33491       -8.54567
C          9.06573       -2.52328       -8.61660
C          9.72722       -3.81912       -8.11046
O         10.09370       -3.75322       -6.70559
C          9.11967       -3.70441       -5.75613
O          7.93196       -3.61033       -5.98287
C          9.73165       -3.79810       -4.37260
S         10.98715       -2.46899       -4.12687
C          8.81843       -5.02145       -8.44498
O          9.06195       -6.17132       -7.61974
C         10.23027       -6.84483       -7.84090
O         11.05027       -6.51603       -8.67175
C         10.35068       -8.02909       -6.90891
S         10.95158       -7.52963       -5.25055
H          0.41594       -0.81639      -10.92475
H          2.00175       -0.92085      -11.71374
H          1.05541        0.57592      -11.81843
H          2.23674       -0.59080       -9.21367
H          1.29761        0.89473       -9.31559
H          3.05297        1.91832      -10.78940
H          3.98377        0.42336      -10.73081
H          4.20344        0.65696       -8.23331
H          3.29490        2.16506       -8.28992
H          5.05699        3.23016       -9.69559
H          5.95108        1.71617       -9.78796
H          5.39454        3.26104       -7.18305
H          6.93520        3.28780       -8.10815
H          7.25086       -1.01695       -7.01713
H          7.43498       -0.16704       -5.50015
H          9.66502       -0.56781       -5.44177
H         11.41019        0.62009       -6.49678
H         12.63670        0.67122       -8.66085
H         13.80192       -1.64957       -7.05709
H         13.82169       -0.01250       -6.38728
H         14.90526       -0.54279       -9.20662
H         15.92886       -0.78408       -7.78802
H         15.77355        1.57008       -7.14492
H         14.44419        1.87495       -8.30492
H         17.96753        3.24603      -10.72979
H         17.86927        3.86295      -12.37547
H         18.40251        0.91211      -11.62660
H         19.60746        2.07740      -12.22184
H         18.29818        1.53755      -13.29172
H         14.73800        2.32966      -13.19778
H         16.31369        2.80744      -13.87818
H         14.35392        4.66599      -12.38311
H         14.64751        4.65588      -14.13896
H         15.93473        5.17840      -13.03423
H         10.85428       -1.91727      -10.33951
H         10.88430       -0.14560      -10.00544
H          8.79305       -2.66006       -9.67281
H          8.13706       -2.35163       -8.06505
H         10.70290       -3.96369       -8.59159
H         10.21800       -4.77966       -4.27008
H          8.92922       -3.69187       -3.63809
H         10.80627       -2.35337       -2.79134
H          8.97896       -5.28032       -9.50243
H          7.76384       -4.78421       -8.26837
H         11.03102       -8.76695       -7.34518
H          9.36923       -8.48541       -6.73136
H         12.20809       -7.21226       -5.64269
