57

C          6.28853       -4.71507        1.05489
C          5.97874       -3.98265        2.36212
C          4.50661       -3.57394        2.49074
C          4.17231       -2.79653        3.77133
N          4.86119       -1.50731        3.84614
C          5.91536       -1.27403        4.67285
O          6.33853       -2.09789        5.48323
C          6.55466        0.12054        4.53716
C          8.09660        0.04286        4.47387
C          8.56773       -0.87616        3.31702
C          7.99038       -0.58623        1.93068
O          8.78819       -1.29934        1.01057
C          8.26364       -1.29966       -0.31788
C          9.23333       -2.09025       -1.18426
O          8.75892       -2.02741       -2.51398
C          9.61862       -2.69843       -3.42794
C          8.70232       -0.43487        5.82261
C         10.16950       -0.02484        5.77208
N         10.17538        1.21457        4.88870
C          8.79125        1.42768        4.31588
N          8.17855        2.52529        5.11818
N          9.20058        3.40306        5.63090
N          7.22129        3.25107        4.37486
H          7.35413       -4.97278        0.98466
H          6.03831       -4.09693        0.17908
H          5.71439       -5.64895        0.97060
H          6.61582       -3.08681        2.43001
H          6.25575       -4.61144        3.22349
H          3.86814       -4.47218        2.47214
H          4.20613       -2.97642        1.61123
H          4.47819       -3.35893        4.66364
H          3.08929       -2.61756        3.84008
H          4.58825       -0.78406        3.18920
H          6.25814        0.69850        5.42611
H          6.15535        0.64081        3.65387
H          8.33046       -1.91466        3.58729
H          9.66480       -0.84320        3.20935
H          8.00163        0.50083        1.68948
H          6.93616       -0.91608        1.86229
H          8.17100       -0.26703       -0.70440
H          7.26074       -1.76517       -0.33634
H          9.29230       -3.13732       -0.82556
H         10.24757       -1.65023       -1.09942
H          9.16939       -2.59526       -4.42228
H          9.71260       -3.77157       -3.18120
H         10.62703       -2.24585       -3.43665
H          8.56637       -1.51059        5.96663
H          8.19073        0.07013        6.65338
H         10.81155       -0.77545        5.29815
H         10.59656        0.24029        6.74541
H         10.88049        1.16054        4.14922
H         10.28894        2.14327        5.42986
H          8.90536        1.73520        3.25819
H          8.88962        3.72748        6.54837
H          9.28449        4.22943        5.02484
H          6.28043        2.98072        4.65651
H          7.32956        3.12640        3.36272
