62

C          0.69465       -0.08068       -0.48356
C          2.18546        0.25817       -0.56065
C          2.96937       -0.71383       -1.45609
C          4.43479       -0.32291       -1.54626
O          5.14611       -1.22187       -2.47286
C          6.04071       -2.07948       -1.93365
O          6.35066       -2.20598       -0.77546
C          6.63202       -2.89023       -3.04036
N          6.22143       -2.80580       -4.36323
C          6.98095       -3.67744       -5.07261
N          6.91875       -3.91262       -6.38381
C          5.94027       -3.28575       -7.28987
C          6.08234       -3.85191       -8.70049
C          5.05849       -3.25387       -9.67222
C          5.18348       -3.83100      -11.08528
C          4.15143       -3.25776      -12.06098
N          4.28134       -3.90043      -13.37018
N          7.81156       -4.25453       -4.16594
N          7.59577       -3.76278       -2.90973
C          8.85733       -5.25483       -4.45128
C          9.47116       -5.84998       -3.18730
C         10.56195       -6.87854       -3.54470
C         11.17750       -7.49465       -2.30764
C         10.68591       -8.70125       -1.79121
C         11.22937       -9.25476       -0.62981
C         12.27387       -8.60554        0.03253
C         12.77301       -7.40288       -0.47452
C         12.22800       -6.85279       -1.63633
H          0.16287        0.62795        0.16422
H          0.53280       -1.08935       -0.07664
H          0.22297       -0.04110       -1.47642
H          2.62062        0.25216        0.45177
H          2.30990        1.28543       -0.94153
H          2.53041       -0.72462       -2.46749
H          2.88995       -1.73815       -1.05735
H          4.94121       -0.37073       -0.57423
H          4.56611        0.67716       -1.98069
H          5.49403       -2.18534       -4.70782
H          7.56464       -4.59012       -6.77675
H          6.10399       -2.19471       -7.29878
H          4.92417       -3.47974       -6.90640
H          5.95683       -4.94728       -8.66342
H          7.10300       -3.65482       -9.06961
H          5.17971       -2.15751       -9.70514
H          4.04054       -3.44102       -9.28918
H          5.06719       -4.92638      -11.06347
H          6.19839       -3.63517      -11.47395
H          4.24690       -2.15185      -12.08335
H          3.13927       -3.47518      -11.68336
H          5.13314       -3.59554      -13.84372
H          3.50450       -3.64461      -13.97934
H          9.63114       -4.76402       -5.06535
H          8.38916       -6.04853       -5.05774
H          8.68801       -6.32930       -2.58197
H          9.89932       -5.04961       -2.56837
H         11.34664       -6.38860       -4.14430
H         10.13128       -7.67362       -4.17478
H          9.87520       -9.21959       -2.30893
H         10.83960      -10.19835       -0.24624
H         12.70205       -9.03963        0.93636
H         13.59511       -6.89562        0.03168
H         12.63134       -5.91670       -2.03074
