57

C          1.09037       -0.50448       -0.30923
C          2.59569       -0.29782       -0.49103
C          3.42971       -1.39546        0.18644
C          4.91957       -1.18625       -0.02946
O          5.69644       -2.29575        0.55638
C          6.15307       -2.13034        1.84361
O          6.01002       -1.11913        2.48447
C          6.88656       -3.37145        2.35895
C          8.39223       -3.37201        1.94040
C          9.25032       -4.32771        2.79325
C          9.16521       -4.15560        4.30803
O         10.05744       -5.09886        4.86156
C         10.04301       -5.13737        6.28941
C         11.00353       -6.23829        6.71731
O         10.94454       -6.32536        8.12700
C         11.82059       -7.31763        8.64669
C          8.53160       -3.69996        0.43779
C          7.79816       -4.97905        0.03802
N          6.35754       -4.91879        0.49960
C          6.20017       -4.70109        2.00130
C          4.72379       -4.81518        2.38234
C          4.48892       -4.70007        3.90324
O          3.16317       -5.07816        4.23532
H          0.52162        0.29401       -0.80260
H          0.81022       -0.50146        0.75407
H          0.76041       -1.46110       -0.74002
H          2.88815        0.68309       -0.08308
H          2.83680       -0.26746       -1.56647
H          3.13595       -2.38138       -0.21296
H          3.21804       -1.40553        1.26812
H          5.27659       -0.25317        0.42296
H          5.18775       -1.20508       -1.09383
H          6.84136       -3.26842        3.44989
H          8.76510       -2.34840        2.09907
H         10.30114       -4.18480        2.49966
H          9.02577       -5.38425        2.57302
H          8.13775       -4.34451        4.68698
H          9.43345       -3.12100        4.60579
H          9.02512       -5.35970        6.66216
H         10.35785       -4.16561        6.71147
H         12.02866       -5.99931        6.37162
H         10.70635       -7.19558        6.24349
H         11.70321       -7.30775        9.73631
H         12.87384       -7.09901        8.39321
H         11.56533       -8.32261        8.26324
H          9.59187       -3.83038        0.17965
H          8.16455       -2.86414       -0.17494
H          8.23533       -5.87627        0.49537
H          7.78271       -5.11970       -1.05020
H          5.85271       -5.76906        0.22186
H          5.89328       -4.09445        0.06276
H          6.76290       -5.52027        2.47495
H          4.33911       -5.80144        2.07347
H          4.12377       -4.05422        1.85850
H          4.72073       -3.68360        4.26181
H          5.15891       -5.39710        4.43379
H          2.59831       -4.29119        4.26290
