42

O          7.32889       -2.08417        4.52365
C          6.22581       -2.88842        4.11445
C          5.01574       -1.98385        3.92055
N          5.26135       -0.91997        2.92624
C          5.74735        0.30940        3.19430
Br         6.08050        1.06485        4.84506
N          5.92022        0.94892        2.02355
C          5.54274        0.12137        0.98344
C          5.12141       -1.05885        1.53580
C          4.53121       -2.26712        0.89858
C          2.97855       -2.30073        0.93993
C          2.47303       -3.73175        1.17298
N          2.90777       -4.19143        2.49504
C          3.24439       -5.62172        2.62299
C          4.14270       -5.87369        3.81278
C          5.44198       -6.36738        3.65252
C          6.28004       -6.60351        4.74609
C          5.81492       -6.33959        6.03648
C          4.52234       -5.84502        6.22683
C          3.69319       -5.61925        5.12317
O          2.41201       -5.13248        5.25879
H          8.09094       -2.66132        4.68477
H          5.94839       -3.63517        4.87608
H          6.44747       -3.43400        3.18057
H          4.74408       -1.48955        4.86146
H          4.17454       -2.60037        3.56322
H          6.27265        1.89828        1.94252
H          5.59561        0.43645       -0.05130
H          4.90786       -3.16415        1.41217
H          4.88669       -2.31574       -0.13917
H          2.56736       -1.88844        0.00723
H          2.60476       -1.65620        1.75113
H          2.90283       -4.39935        0.40956
H          1.37771       -3.76821        1.03620
H          2.20534       -3.95953        3.19840
H          3.78392       -5.92021        1.71271
H          2.34372       -6.26265        2.68626
H          5.79732       -6.58229        2.64208
H          7.28198       -7.00386        4.59309
H          6.45157       -6.52615        6.90177
H          4.15079       -5.64515        7.23526
H          2.17535       -5.11181        6.20061
