46

C          1.00794        0.48592        0.35881
O          2.42813        0.63518        0.42608
C          3.03482       -0.34553        1.26070
C          4.53881       -0.23531        1.18328
C          5.30213       -1.36945        0.98259
C          6.71249       -1.31334        0.99235
C          7.37664       -0.11078        1.13555
C          6.65140        1.09468        1.28187
C          5.21532        1.01572        1.35838
C          4.50739        2.18473        1.67325
N          5.17464        3.33059        1.84435
C          6.52481        3.51245        1.68079
C          7.31062        2.37908        1.41561
N          8.68381        2.49798        1.29507
C          9.49803        3.18214        2.29512
C          9.41874        1.97477        0.14642
C          7.03416        4.92476        1.72013
C          6.08582        5.97244        1.12434
O          6.80169        7.18790        1.14003
C          6.06462        8.29039        0.64160
C          6.96411        9.52278        0.71044
F          7.36485        9.78162        1.97617
F          8.07194        9.37797       -0.05285
F          6.27708       10.59920        0.25636
H          0.64038        1.27797       -0.30284
H          0.54204        0.59331        1.35443
H          0.73067       -0.49535       -0.06164
H          2.73308       -1.36195        0.94992
H          2.69674       -0.21985        2.31255
H          4.80584       -2.33023        0.83848
H          7.28416       -2.23558        0.88692
H          8.46297       -0.09563        1.15505
H          3.42478        2.21974        1.75855
H          4.62520        4.16277        2.05920
H          8.89978        3.41806        3.18123
H          9.95978        4.10669        1.91094
H         10.31045        2.50967        2.61556
H          8.72897        1.56757       -0.59983
H         10.14303        1.19461        0.43353
H          9.98280        2.79563       -0.32624
H          7.96659        4.96294        1.14295
H          7.29496        5.23603        2.74554
H          5.15306        6.08201        1.72183
H          5.79099        5.69415        0.09278
H          5.16449        8.49154        1.25010
H          5.76481        8.14504       -0.41155
