37

C          0.76209       -1.96287        1.45005
C          2.28457       -2.09846        1.41588
C          2.96031       -0.85864        0.78107
C          4.44038       -0.95038        0.80013
N          5.23592       -0.43171        1.71871
N          6.50025       -0.79773        1.35610
C          6.50085       -1.52743        0.24976
N          5.20300       -1.64378       -0.12918
N          4.66878       -2.30571       -1.25044
C          5.06252       -1.63783       -2.50066
C          4.95991       -3.74665       -1.21199
C          7.64819       -0.44798        2.21008
C          7.73384       -1.33824        3.45309
C          7.78709       -2.85184        3.14194
C          8.76627       -3.20155        2.11908
C          9.57846       -3.44310        1.25332
H          0.30465       -2.85133        1.90367
H          0.34449       -1.85076        0.43953
H          0.45122       -1.09007        2.04132
H          2.56939       -2.99565        0.84454
H          2.67714       -2.23060        2.43594
H          2.68261        0.04796        1.33606
H          2.62078       -0.73988       -0.25817
H          7.36933       -1.96678       -0.22937
H          4.79327       -0.57641       -2.44531
H          4.48956       -2.09752       -3.31442
H          6.14040       -1.73464       -2.72953
H          4.62935       -4.15777       -0.25108
H          6.02845       -3.98624       -1.36794
H          4.37690       -4.22076       -2.01007
H          7.52359        0.60672        2.48327
H          8.54461       -0.55358        1.58583
H          6.88260       -1.13645        4.11789
H          8.64412       -1.03511        3.99005
H          6.79067       -3.20896        2.82973
H          8.01502       -3.39727        4.07061
H         10.32633       -3.70381        0.53239
