57

C          5.74340        0.10650       -4.61403
C          5.10229        0.64757       -3.33400
C          6.13162        1.10293       -2.29350
C          5.49302        1.64808       -1.01061
C          6.48670        2.05847        0.06448
O          7.38554        3.12308       -0.42672
C          7.01793        4.38480       -0.21377
O          6.04359        4.75903        0.42067
C          7.97551        5.35996       -0.91148
N          8.42222        6.45318       -0.04386
C          7.63323        7.53449        0.16780
N          8.03706        8.79130        0.41575
N          6.97965        9.63995        0.60828
C          5.91356        8.88612        0.46584
N          6.27915        7.57459        0.18641
C          4.49072        9.34508        0.57387
C          3.72391        8.51624        1.61881
O          3.75040        7.14483        1.20051
C          4.39733       10.84605        0.86929
C          9.78853        6.42255        0.50074
C         10.78139        7.24776       -0.35428
O         10.60390        8.47090       -0.38288
C         11.87255        6.60267       -1.10512
C         12.07470        5.20645       -1.12651
C         13.12077        4.65900       -1.86660
C         13.97727        5.49503       -2.58952
C         13.78910        6.88392       -2.57300
C         12.74721        7.43500       -1.83833
H          4.98247       -0.21551       -5.33681
H          6.38699       -0.76013       -4.40332
H          6.36571        0.86934       -5.10519
H          4.45491       -0.12659       -2.88920
H          4.43677        1.49143       -3.58205
H          6.78368        1.87234       -2.74039
H          6.79325        0.25613       -2.03964
H          4.84545        0.87800       -0.55786
H          4.83148        2.50006       -1.23827
H          7.17688        1.24439        0.31926
H          5.98906        2.42586        0.96980
H          7.44504        5.77062       -1.78595
H          8.85836        4.83152       -1.28678
H          9.01966        9.09702        0.30333
H          5.67534        6.74154        0.27244
H          4.01530        9.13358       -0.40104
H          2.68939        8.89358        1.67081
H          4.18988        8.63869        2.61293
H          3.30987        6.59735        1.86755
H          4.84570       11.09446        1.84015
H          3.34511       11.15583        0.88442
H          4.91603       11.43293        0.10279
H         10.07072        5.37166        0.61597
H          9.78274        6.87080        1.50572
H         11.42705        4.53315       -0.56487
H         13.27334        3.57983       -1.87618
H         14.79667        5.06515       -3.16639
H         14.46086        7.53229       -3.13560
H         12.58557        8.51230       -1.81319
