75

C          2.16718       -0.73224       -0.08036
C          3.63023       -0.30454        0.05913
C          3.82859        1.21323       -0.02585
C          5.29125        1.64674        0.11391
C          5.49429        3.16199       -0.00194
C          6.96607        3.57433        0.13807
C          7.17593        5.06767       -0.03195
O          8.59394        5.34113        0.09898
C          8.96573        6.70207       -0.04181
C         10.49229        6.73331        0.04984
N         10.95359        5.57353        0.96309
C         12.03628        4.82001        0.18887
C         12.36654        5.83753       -0.93104
O         11.07701        6.43231       -1.17651
C         13.45407        6.86309       -0.59240
O         13.43001        7.81445       -1.62900
C         14.32397        8.88517       -1.56592
C         15.60146        8.74694       -1.01484
C         16.50968        9.81373       -1.02508
C         17.89380        9.66083       -0.44842
C         16.09504       11.02088       -1.60210
C         14.81529       11.14701       -2.13945
C         13.88819       10.09529       -2.13672
C         12.49923       10.31600       -2.71916
C         12.22377        9.47232       -3.97792
C         11.37941       10.15264       -1.67207
C         13.14562        4.32077        1.10917
C         14.16497        3.44326        0.36801
C         15.29059        2.95322        1.30219
C         16.28020        2.15385        0.59518
C         17.08697        1.49452       -0.01813
H          2.06032       -1.82322       -0.01157
H          1.74938       -0.41895       -1.04860
H          1.54273       -0.28744        0.70852
H          4.23404       -0.79328       -0.72442
H          4.03118       -0.66941        1.02018
H          3.22405        1.70493        0.75647
H          3.42996        1.57814       -0.98887
H          5.89756        1.14011       -0.65726
H          5.68416        1.29870        1.08546
H          4.89062        3.67438        0.76643
H          5.10707        3.50704       -0.97589
H          7.57298        3.04554       -0.61480
H          7.34365        3.26819        1.12826
H          6.62667        5.64677        0.73203
H          6.84579        5.40881       -1.02843
H          8.51653        7.32970        0.74987
H          8.67894        7.11358       -1.02445
H         10.86892        7.67232        0.49044
H         10.09373        4.99201        1.08191
H         11.29387        5.90860        1.87080
H         11.51338        3.97314       -0.27596
H         12.63337        5.32766       -1.86520
H         14.41662        6.32415       -0.52969
H         13.29508        7.35603        0.38952
H         15.92102        7.79372       -0.59047
H         18.05135        8.65931       -0.02816
H         18.07589       10.39541        0.34919
H         18.66182        9.82582       -1.21813
H         16.77866       11.87104       -1.62926
H         14.51121       12.10091       -2.57585
H         12.48531       11.37290       -3.03194
H         12.17709        8.40074       -3.74294
H         13.00935        9.62199       -4.73051
H         11.26464        9.76400       -4.42952
H         11.25263        9.09546       -1.40460
H         10.42342       10.51385       -2.07775
H         11.59964       10.72658       -0.76102
H         12.69277        3.73047        1.92318
H         13.65705        5.17495        1.58596
H         14.61922        3.99510       -0.46864
H         13.65846        2.57149       -0.07375
H         14.86064        2.36118        2.12827
H         15.78883        3.81915        1.77151
H         17.80872        0.91020       -0.54975
