43

N          0.68002       -1.06903        0.55054
C          2.03528       -0.55919        0.35796
C          2.75205       -1.37693       -0.72859
C          4.18909       -0.89768       -0.97439
C          4.89036       -1.50914       -2.18965
N          4.76315       -3.04709       -2.18685
C          4.06128       -3.38075       -3.52337
O          4.46604       -2.36247       -4.35407
C          4.32956       -1.13381       -3.59262
C          5.06834       -0.01945       -4.31348
C          4.92797        1.34919       -3.63285
C          5.50440        2.50072       -4.47841
C          5.33091        3.83444       -3.78905
C          4.18204        4.60785       -4.01027
C          3.99289        5.81624       -3.33574
C          4.95268        6.26769       -2.42601
C          6.10277        5.50697       -2.19861
C          6.28905        4.29992       -2.87636
H          0.07674       -0.36080        0.96582
H          0.66634       -1.87046        1.18171
H          2.65649       -0.54547        1.27553
H          1.96360        0.48394        0.01472
H          2.13934       -1.32238       -1.64132
H          2.73346       -2.43844       -0.40841
H          4.80558       -1.06769       -0.07745
H          4.19290        0.19155       -1.13092
H          5.96814       -1.29950       -2.16678
H          4.20726       -3.36174       -1.37967
H          5.68671       -3.49044       -2.14382
H          2.98002       -3.38505       -3.29772
H          4.39762       -4.35235       -3.90336
H          3.25408       -0.89243       -3.50905
H          4.65785        0.03101       -5.33372
H          6.13028       -0.29803       -4.41451
H          5.43766        1.35346       -2.65512
H          3.86442        1.56037       -3.42975
H          5.00176        2.51589       -5.45827
H          6.57226        2.31207       -4.67288
H          3.43254        4.26640       -4.72849
H          3.09891        6.41090       -3.52750
H          4.80976        7.21408       -1.90375
H          6.86226        5.85932       -1.49955
H          7.19833        3.71814       -2.70458
