108

C          0.80014       -0.36403       -0.56322
C          2.25269       -0.21144       -0.10501
C          2.78139        1.22308       -0.21697
C          4.22805        1.38316        0.26075
C          4.77363        2.80831        0.12168
C          6.21527        2.96114        0.61716
C          6.78257        4.37536        0.45474
C          8.21490        4.52052        0.97972
C          8.83260        5.90185        0.73560
C         10.22422        6.06121        1.35790
C         10.91995        7.38024        1.00479
C         12.23893        7.59211        1.75694
C         13.02989        8.81764        1.28676
C         14.26772        9.11164        2.14079
C         15.17586       10.19647        1.55196
C         16.44725       10.44147        2.37216
C         17.49239       11.29028        1.63699
C         18.82215       11.36505        2.40529
C         20.08893       11.92744        1.72169
C         20.01539       13.42147        1.32435
C         19.31959       13.64604       -0.01637
N         20.05029       12.87901       -1.09650
C         20.04211       11.39072       -0.83385
C         20.67049       11.08544        0.53286
C         20.62341        9.61214        0.76847
N         21.53044        8.86297        1.31143
N         21.00012        7.57736        1.39070
C         19.80450        7.63854        0.86151
O         19.48252        8.91410        0.43430
S         18.70751        6.31820        0.63516
C         17.15182        7.19810        0.20751
C         16.01419        6.18246        0.15585
C         19.04625       15.10454       -0.46454
C         20.16030       16.23019       -0.45399
C         21.48857       16.07413       -1.30255
C         21.49763       15.93839       -2.87999
C         20.84321       17.02207       -3.82965
C         21.33190       18.52690       -3.81663
C         22.82654       18.91347       -4.16455
C         23.41788       18.48168       -5.55892
F         22.57877       18.80402       -6.55585
F         24.58381       19.11666       -5.73937
F         23.64375       17.15286       -5.58697
F         22.86305       20.26564       -4.11107
F         23.63716       18.41663       -3.19240
F         20.52082       19.16524       -4.69142
F         21.09427       19.01717       -2.56994
F         20.99318       16.53478       -5.08540
F         19.51595       17.05094       -3.54203
F         22.78911       15.77082       -3.22395
F         20.84081       14.75789       -3.17160
F         22.29437       17.08491       -0.95528
F         22.08445       14.89409       -0.85758
F         19.56004       17.38326       -0.80866
F         20.58320       16.34041        0.83710
F         18.51103       15.04742       -1.73069
F         18.08029       15.56553        0.37378
H          0.45824       -1.40505       -0.48072
H          0.67664       -0.05599       -1.61247
H          0.12269        0.25615        0.04307
H          2.89813       -0.88105       -0.69895
H          2.34780       -0.55249        0.94010
H          2.12810        1.89854        0.36355
H          2.70252        1.55859       -1.26641
H          4.87666        0.68981       -0.30333
H          4.29900        1.06754        1.31661
H          4.12079        3.50626        0.67477
H          4.71654        3.11829       -0.93675
H          6.86272        2.24798        0.07654
H          6.26764        2.66632        1.68031
H          6.12816        5.09626        0.97592
H          6.75231        4.65886       -0.61246
H          8.85476        3.75257        0.50987
H          8.22808        4.30012        2.06184
H          8.16344        6.68209        1.13897
H          8.89035        6.08732       -0.35151
H         10.86532        5.22006        1.03932
H         10.14017        5.97396        2.45546
H         10.24251        8.22503        1.22015
H         11.10464        7.41341       -0.08374
H         12.87145        6.69239        1.65185
H         12.02776        7.68344        2.83647
H         12.37139        9.70332        1.28107
H         13.33618        8.66880        0.23513
H         14.85281        8.18334        2.26764
H         13.95300        9.40218        3.15723
H         14.61200       11.13857        1.44275
H         15.46123        9.89992        0.52537
H         16.90943        9.47123        2.62691
H         16.19308       10.90942        3.33739
H         17.07757       12.29899        1.46466
H         17.63880       10.83210        0.64502
H         19.07411       10.35242        2.75813
H         18.66770       11.95441        3.32358
H         20.87089       11.86905        2.49389
H         21.02925       13.84755        1.28730
H         19.46950       13.98559        2.09244
H         18.30802       13.21264        0.00226
H         21.02333       13.22071       -1.15357
H         19.61898       13.08379       -2.00913
H         20.60755       10.91939       -1.64819
H         18.99622       11.06895       -0.89836
H         21.74646       11.32264        0.46883
H         17.28439        7.69909       -0.76034
H         16.97160        7.95434        0.97944
H         16.18945        5.41125       -0.60579
H         15.07905        6.69923       -0.09802
H         15.87233        5.68549        1.12452
