75

C          1.35698        0.39544        0.02170
C          2.87207        0.32082       -0.14584
S          3.33989       -1.44920       -0.31336
C          5.04742       -1.29129       -0.49560
N          5.80907       -0.22166       -0.55004
N          7.11350       -0.68185       -0.68532
C          7.05316       -1.97715       -0.70592
O          5.77277       -2.46139       -0.59731
C          8.19116       -2.92684       -0.78895
C          8.01518       -3.92565       -1.93981
N          9.14085       -4.94049       -1.88471
C          9.28623       -5.63456       -0.51397
C          9.44409       -4.48640        0.50827
O          8.29838       -3.62789        0.45403
C          9.60062       -4.97354        1.93658
C          9.74879       -3.84858        2.96094
O         10.15791       -4.49089        4.15933
C          9.82862       -3.82047        5.35282
C          9.96930       -4.79952        6.51951
C          8.89098       -5.93611        6.67729
C          8.73245       -7.10063        5.62666
C          9.98759       -7.98785        5.35651
F          9.56575       -9.13007        4.73647
F         10.83942       -7.34780        4.50803
F          7.77043       -7.91723        6.14020
F          8.25469       -6.60449        4.44569
F          9.14800       -6.55250        7.86659
F          7.67294       -5.32505        6.75650
F         11.20261       -5.39125        6.51161
F          9.87052       -4.05912        7.66759
C          8.10219       -6.58585       -0.29421
C          8.43928       -7.83430        0.53966
C          7.18619       -8.67138        0.82264
C          7.41213       -9.77622        1.85943
C          6.14506      -10.60031        2.11161
C          6.30972      -11.58887        3.25499
O          5.07716      -12.33740        3.35018
C          4.94135      -13.11109        4.47164
O          5.78597      -13.17890        5.34387
C          3.63896      -13.82202        4.44335
C          3.27720      -14.63670        5.44044
H          1.06170        1.44750        0.12778
H          1.01754       -0.13923        0.91901
H          0.82825       -0.01472       -0.84908
H          3.40613        0.72333        0.72353
H          3.21691        0.84494       -1.04520
H          9.09490       -2.30750       -0.95587
H          8.05563       -3.43218       -2.91908
H          7.07217       -4.47623       -1.84358
H         10.02764       -4.46788       -2.11347
H          8.99110       -5.65919       -2.60542
H         10.23084       -6.19564       -0.59019
H         10.34226       -3.89233        0.22578
H         10.48953       -5.61940        2.00485
H          8.73536       -5.58326        2.22381
H          8.78966       -3.32178        3.10245
H         10.50172       -3.10107        2.64175
H          8.79351       -3.43497        5.34204
H         10.51437       -2.98031        5.56805
H         10.51536       -8.25316        6.28507
H          7.71856       -6.92666       -1.27351
H          7.27685       -6.03245        0.17924
H          8.89700       -7.54428        1.49604
H          9.19261       -8.44193        0.01073
H          6.81145       -9.10948       -0.11867
H          6.38557       -8.00467        1.18719
H          7.75138       -9.31635        2.80215
H          8.23053      -10.43889        1.53070
H          5.86246      -11.14782        1.19812
H          5.30362       -9.92835        2.34722
H          6.50374      -11.08416        4.21358
H          7.14124      -12.29041        3.07785
H          3.00194      -13.64739        3.57526
H          3.93782      -14.79145        6.29498
H          2.32367      -15.16346        5.42791
