64

C          1.06609        0.06527       -0.22812
C          2.59590        0.01772       -0.19413
C          3.14617       -1.05559        0.75112
C          4.67646       -1.12157        0.79335
C          5.20869       -2.19642        1.74575
C          6.73752       -2.28521        1.79985
C          7.23712       -3.35544        2.77528
C          8.76242       -3.47797        2.84660
C          9.22249       -4.52543        3.86671
C         10.74667       -4.68498        3.93470
C         11.16005       -5.66240        5.01870
O         12.60197       -5.80622        4.99395
C         13.07231       -6.56780        6.06592
N         14.53378       -6.58629        5.96024
C         15.26311       -7.34168        5.03465
C         16.56601       -6.92777        5.14914
N         16.58849       -5.93185        6.10339
C         15.35589       -5.71873        6.59997
C         15.01502       -4.71302        7.61011
C         15.36207       -3.37015        7.39713
C         15.02997       -2.43791        8.38409
N         14.39698       -2.75656        9.52110
C         14.07817       -4.04351        9.71867
C         14.36392       -5.05989        8.80415
C         14.66399       -8.37421        4.13649
C         15.09353       -8.27082        2.67458
C         15.40114       -7.00450        1.99785
O         16.45395       -7.90744        2.40865
H          0.70093        0.84358       -0.91203
H          0.65070        0.27760        0.76840
H          0.64422       -0.89449       -0.56227
H          2.98936        1.00328        0.10760
H          2.98232       -0.16217       -1.21173
H          2.74769       -2.04149        0.45229
H          2.76127       -0.87367        1.77036
H          5.07737       -0.13678        1.09173
H          5.06292       -1.30878       -0.22407
H          4.79959       -3.17870        1.45015
H          4.82136       -2.00433        2.76202
H          7.15299       -1.30355        2.08805
H          7.12991       -2.49499        0.78928
H          6.80842       -4.33305        2.49279
H          6.84445       -3.13585        3.78382
H          9.20032       -2.49846        3.10635
H          9.16012       -3.73425        1.84923
H          8.76252       -5.49840        3.62218
H          8.83650       -4.24883        4.86327
H         11.22202       -3.71108        4.13321
H         11.13434       -5.03763        2.96544
H         10.69569       -6.65424        4.86302
H         10.85292       -5.29655        6.01649
H         12.71400       -7.61378        6.04450
H         12.80405       -6.12737        7.04071
H         17.44982       -7.25816        4.61876
H         17.41895       -5.45084        6.43896
H         15.84968       -3.05054        6.47526
H         15.27847       -1.38234        8.24850
H         13.57378       -4.27760       10.65955
H         14.11193       -6.09569        9.03457
H         13.56674       -8.31886        4.16597
H         14.93919       -9.37533        4.50722
H         14.72529       -9.10390        2.06591
H         15.35148       -6.06442        2.55630
H         15.26142       -6.92350        0.91742
