86

C          2.14051       -3.62141        5.55632
C          3.61511       -4.02836        5.51937
C          4.32668       -3.60585        4.22813
C          5.80356       -4.01622        4.20609
C          6.51880       -3.61460        2.92696
O          7.89544       -4.02482        3.04251
C          8.68869       -3.84493        1.86590
C         10.06482       -4.46890        2.11884
C         10.04557       -5.92169        2.62559
C          9.23669       -6.88163        1.74749
O          9.11377       -8.16716        2.33712
C          8.37012       -8.08684        3.55985
C          9.16926       -7.30500        4.62090
N          9.47127       -5.93831        4.03232
C         10.44828       -7.97060        5.13371
C         11.02203       -7.25679        6.37676
C         12.52792       -6.96802        6.35607
S         13.27575       -6.33498        4.81298
C         12.83515       -4.61028        4.73405
S         11.57080       -3.95083        5.63805
N         13.58200       -3.89128        3.87068
C         13.33066       -2.45080        3.66515
C         14.15468       -1.57250        4.60674
C         14.69556       -4.45837        3.08751
C         14.26300       -4.94928        1.70300
C          8.00542       -9.51342        3.95944
C          7.17198       -9.53606        5.24524
O          6.68207       -8.48526        5.68280
N          7.01832      -10.73709        5.87435
C          6.38170      -10.76225        7.19918
C          7.38929      -10.91799        8.35022
C          8.46906       -9.82887        8.39114
C          9.43258       -9.98236        9.57062
C          7.56859      -11.99385        5.38059
H          1.66292       -3.93777        6.49318
H          1.57792       -4.07598        4.72757
H          2.02353       -2.53061        5.47676
H          3.70179       -5.12148        5.63783
H          4.14232       -3.58774        6.38219
H          4.24567       -2.51195        4.10690
H          3.80476       -4.04854        3.36220
H          5.88289       -5.11016        4.33338
H          6.32875       -3.55808        5.06047
H          6.47992       -2.52196        2.76782
H          6.06809       -4.10361        2.04304
H          8.80285       -2.76984        1.64033
H          8.18192       -4.30998        1.00004
H         10.61563       -3.85479        2.84665
H         10.64067       -4.43924        1.18174
H         11.07527       -6.29512        2.71326
H          9.75370       -7.01524        0.78771
H          8.22925       -6.47195        1.54341
H          7.43189       -7.52609        3.37844
H          8.48629       -7.11492        5.46060
H         10.12532       -5.39343        4.65855
H          8.60316       -5.35753        3.96811
H         11.19511       -8.02291        4.32721
H         10.20977       -9.01194        5.38396
H         10.82620       -7.86405        7.27364
H         10.50351       -6.30520        6.54945
H         13.11062       -7.89276        6.49040
H         12.80405       -6.27784        7.16386
H         12.25916       -2.27519        3.82333
H         13.56961       -2.23344        2.61409
H         13.88109       -1.76054        5.65229
H         13.96116       -0.51438        4.38600
H         15.23272       -1.74719        4.48853
H         15.15110       -5.27190        3.66835
H         15.45541       -3.66987        2.99545
H         13.52886       -5.76272        1.77941
H         15.13378       -5.33305        1.15521
H         13.82353       -4.13748        1.10712
H          8.91673      -10.12048        4.05158
H          7.42950       -9.95180        3.12929
H          5.65733      -11.59098        7.21369
H          5.82843       -9.82107        7.29836
H          7.86700      -11.91178        8.30800
H          6.81371      -10.90525        9.28994
H          7.98594       -8.83898        8.42232
H          9.04215       -9.85401        7.44778
H          8.89995       -9.93039       10.53107
H         10.19379       -9.18915        9.57591
H          9.95934      -10.94777        9.53813
H          8.55465      -12.22255        5.81775
H          7.66052      -11.98613        4.29034
H          6.88268      -12.80842        5.64844
