97

C          1.46160        0.05774       -0.15702
C          2.62486        0.85089        0.44359
C          3.37097        1.70911       -0.58343
C          4.51157        2.54155        0.00898
C          5.23001        3.40919       -1.02835
C          6.28591        4.35047       -0.43782
C          6.93757        5.23154       -1.50643
C          7.75627        6.39783       -0.92869
N          8.02987        7.42612       -1.94759
C          7.10839        8.34197       -2.32132
S          7.25139        9.38116       -3.61494
S          5.66038        8.38015       -1.23195
C          4.35963        8.90016       -2.38400
C          4.04800        7.79325       -3.39624
C          2.71474        7.98843       -4.16626
C          1.51904        7.53106       -3.38375
N          0.81022        8.50045       -2.80727
N         -0.25328        8.13919       -2.09326
C         -0.71942        6.89123       -1.88954
C          0.01659        5.86396       -2.48609
C          1.15470        6.14696       -3.23678
C          1.96788        5.05819       -3.87319
C          1.46728        3.62362       -3.70307
C          2.44688        2.59824       -4.28251
C          1.92614        1.16002       -4.19712
C          2.94159        0.12625       -4.68620
C         -1.96418        6.73391       -1.06193
C         -2.43975        5.29202       -0.84335
C         -3.71557        5.23607       -0.00004
C          9.29580        7.29247       -2.68757
C         10.45228        8.08685       -2.07273
C         11.74545        7.88293       -2.86898
C         12.94733        8.65052       -2.31006
C         14.23577        8.40110       -3.10155
C         15.45051        9.16802       -2.57021
C         16.73552        8.89996       -3.36228
C         17.95694        9.63740       -2.80772
H          0.94351       -0.53839        0.60591
H          1.80870       -0.63553       -0.93762
H          0.71497        0.72520       -0.61596
H          3.33598        0.15684        0.92090
H          2.25106        1.50030        1.25338
H          2.64965        2.38950       -1.07280
H          3.76410        1.06144       -1.38693
H          5.24071        1.87331        0.49755
H          4.11186        3.18775        0.81037
H          4.48107        4.02193       -1.56557
H          5.69287        2.76238       -1.79394
H          7.04978        3.76807        0.10357
H          5.80420        4.99893        0.31468
H          6.14473        5.66642       -2.13453
H          7.56950        4.62633       -2.17593
H          8.72568        6.05666       -0.54030
H          7.22896        6.85197       -0.07899
H          4.67533        9.82765       -2.88308
H          3.50745        9.12398       -1.72401
H          4.04716        6.82732       -2.87015
H          4.86783        7.75324       -4.12685
H          2.76096        7.42531       -5.10973
H          2.57687        9.04662       -4.42430
H         -0.74586        8.93538       -1.68250
H         -0.31762        4.83759       -2.35419
H          2.99791        5.13442       -3.48087
H          2.07593        5.29638       -4.94712
H          0.48263        3.50813       -4.18803
H          1.32033        3.39900       -2.63264
H          3.40722        2.67486       -3.74372
H          2.66614        2.84808       -5.33500
H          0.99702        1.07624       -4.78535
H          1.64648        0.93697       -3.15479
H          3.22566        0.30516       -5.73356
H          2.53636       -0.89221       -4.62261
H          3.86172        0.15612       -4.08371
H         -2.76819        7.31923       -1.54357
H         -1.78993        7.21934       -0.08489
H         -1.64416        4.71256       -0.34802
H         -2.62305        4.81219       -1.81826
H         -3.56078        5.67665        0.99516
H         -4.04019        4.19821        0.14318
H         -4.54090        5.77836       -0.48334
H          9.11260        7.62724       -3.71739
H          9.54021        6.21919       -2.71303
H         10.60221        7.77988       -1.02379
H         10.17981        9.15383       -2.05564
H         11.57541        8.18699       -3.91630
H         11.98762        6.80566       -2.90261
H         13.10466        8.36989       -1.25382
H         12.72105        9.73082       -2.30598
H         14.06940        8.67000       -4.15963
H         14.45952        7.31944       -3.09746
H         15.61423        8.90584       -1.50976
H         15.23417       10.25103       -2.58309
H         16.57756        9.18628       -4.41604
H         16.93385        7.81460       -3.37321
H         17.80211       10.72664       -2.80837
H         18.85713        9.42969       -3.40235
H         18.16767        9.33522       -1.77094
