84

O          2.18946       -2.36923        2.15816
C          3.59429       -2.23439        2.21692
C          4.30616       -2.93856        1.05820
N          5.76522       -2.77311        1.17752
C          6.53111       -3.35711        0.07239
C          6.63956       -2.43674       -1.15721
C          7.25251       -1.04557       -0.83416
C          6.21904       -0.06379       -0.27221
C          5.45005        0.62586       -1.40573
N          4.50679        1.62950       -0.92258
C          5.19599        2.70442       -0.21824
C          5.95350        2.16163        0.99129
N          6.87842        1.00049        0.64358
C          7.37739        0.35051        1.91904
C          8.29259        1.27234        2.72161
C          8.94211        0.59577        3.94327
C          8.20268        0.73917        5.33337
C          6.73898        0.18247        5.54729
C          6.38457       -1.35007        5.39119
C          7.08849       -2.47500        6.25045
C          7.00499       -2.48704        7.82921
C          5.61538       -2.56654        8.58325
C          4.65035       -3.77363        8.28174
F          5.30522       -4.94296        8.35948
F          3.66308       -3.76014        9.18969
F          4.10346       -3.65742        7.05567
F          5.93099       -2.62692        9.89915
F          4.92922       -1.41538        8.35445
F          7.74346       -3.55689        8.21168
F          7.61553       -1.35946        8.27973
F          6.57084       -3.64671        5.79456
F          8.40964       -2.45068        5.94027
F          5.04824       -1.43548        5.57868
F          6.63911       -1.68606        4.08602
F          6.34488        0.58523        6.77036
F          5.93946        0.82129        4.62036
F          9.00124        0.21511        6.28557
F          8.08940        2.08506        5.55258
F          9.18963       -0.72726        3.69750
F         10.15123        1.19949        4.14901
C          3.35807        1.11712       -0.36026
N          2.92912       -0.11682       -0.44595
N          1.74205       -0.14571        0.28231
C          1.52554        1.04762        0.75842
O          2.55886        1.92935        0.36551
S          0.20429        1.65326        1.69396
C          0.98815        1.72225        3.36865
C          1.04529        0.36817        4.06749
C          1.84186        0.41035        5.37984
C          1.84664       -0.94531        6.09139
O          7.38509       -3.06807       -2.18940
H          1.85044       -1.81413        1.42339
H          3.90891       -2.67542        3.17715
H          3.90642       -1.16687        2.24192
H          3.97130       -2.48158        0.11373
H          3.99660       -4.00035        1.03329
H          6.07353       -3.20259        2.04996
H          6.12194       -4.32573       -0.27514
H          7.55578       -3.55026        0.43743
H          5.63619       -2.28984       -1.59069
H          7.67080       -0.64822       -1.77227
H          8.09969       -1.19808       -0.14821
H          5.53026       -0.59128        0.40179
H          4.90248       -0.14378       -1.96313
H          6.13985        1.11977       -2.10860
H          4.47926        3.45892        0.12762
H          5.87306        3.19906       -0.93093
H          5.25386        1.77041        1.74279
H          6.56670        2.94270        1.45630
H          7.68830        1.38210        0.12998
H          7.90733       -0.56132        1.63445
H          6.47681        0.04549        2.45853
H          7.78590        2.17787        3.07760
H          9.14243        1.59263        2.09808
H          0.35793        2.44482        3.90905
H          1.97974        2.18481        3.25504
H          1.49043       -0.38663        3.40131
H          0.01795        0.02244        4.26385
H          1.42692        1.18192        6.04979
H          2.87970        0.72170        5.16508
H          0.82869       -1.24530        6.37771
H          2.45373       -0.91588        7.00569
H          2.24852       -1.73480        5.44043
H          8.14812       -3.52758       -1.80019
