61

C          0.92644        0.03090        0.42708
C          2.43990       -0.19354        0.38433
C          3.03558       -0.02878       -1.01841
C          4.55399       -0.22447       -1.07248
C          5.13849       -0.06361       -2.47983
C          6.66111       -0.22228       -2.53809
C          7.23216       -0.07200       -3.95185
C          8.75798       -0.19676       -4.01439
C          9.30628       -0.10898       -5.44208
C         10.83121       -0.27804       -5.51284
C         11.26519       -0.52031       -6.95867
N         12.71995       -0.82930       -7.11645
C         13.51406        0.18513       -7.55454
C         14.87251        0.02779       -7.74441
C         15.43940       -1.22178       -7.48617
C         14.61848       -2.25161       -7.03911
C         13.24606       -2.06670       -6.83546
C         12.41750       -3.19920       -6.27351
C         11.12485       -3.56170       -6.98252
C         11.10707       -3.83268       -8.35751
C          9.89809       -4.14515       -8.98232
C          8.71168       -4.18521       -8.24701
C          8.70943       -3.93243       -6.86583
C          9.93204       -3.62850       -6.25159
C          7.43818       -3.99080       -6.06064
H          0.52873       -0.09573        1.44326
H          0.39793       -0.67885       -0.22667
H          0.66385        1.04556        0.09258
H          2.67498       -1.20298        0.76202
H          2.93678        0.50947        1.07411
H          2.78457        0.97539       -1.40382
H          2.54950       -0.74412       -1.70568
H          4.80942       -1.22542       -0.68234
H          5.03881        0.49709       -0.39157
H          4.86216        0.92855       -2.87746
H          4.66829       -0.79976       -3.15567
H          6.94337       -1.20998       -2.13247
H          7.13152        0.52247       -1.87267
H          6.92873        0.90440       -4.36768
H          6.77855       -0.83323       -4.61161
H          9.06349       -1.16197       -3.57171
H          9.22003        0.58372       -3.38625
H          9.01760        0.85277       -5.89766
H          8.83089       -0.89325       -6.05500
H         11.12686       -1.12911       -4.88145
H         11.34619        0.60612       -5.10515
H         11.07577        0.36466       -7.57836
H         10.71051       -1.35861       -7.39369
H         13.00266        1.12569       -7.74904
H         15.46384        0.87079       -8.09702
H         16.50616       -1.39163       -7.63343
H         15.03373       -3.23685       -6.83065
H         12.19842       -2.96796       -5.21811
H         13.08206       -4.07544       -6.24698
H         12.02994       -3.79943       -8.94074
H          9.87947       -4.35605      -10.05208
H          7.77282       -4.41949       -8.75181
H          9.94896       -3.42317       -5.17777
H          6.58625       -3.58842       -6.62414
H          7.52849       -3.42787       -5.12246
H          7.19030       -5.03080       -5.79844
