95

N          2.36272        2.86278        1.71569
C          3.64637        2.28414        1.31247
C          3.61225        1.89525       -0.16700
C          4.94548        1.33988       -0.67596
C          4.89703        0.98612       -2.16557
C          6.25410        0.56325       -2.75733
C          6.83578       -0.75110       -2.22137
C          6.04826       -1.97202       -2.70173
C          6.75775       -3.29168       -2.37238
C          5.96158       -4.55598       -2.72583
C          6.76530       -5.83261       -2.44607
P          5.93153       -7.41057       -2.79888
O          6.77011       -8.61390       -2.59876
O          4.58308       -7.37152       -1.91189
C          4.30191       -8.43526       -0.94650
C          3.43149       -9.51658       -1.55807
O          5.40744       -7.12749       -4.29685
C          4.74015       -8.20531       -5.02123
C          4.58298       -7.77948       -6.46601
N          5.86198       -1.85960       -4.16202
C          5.90699       -0.71026       -4.85596
N          5.71609       -0.71858       -6.18800
C          5.74285        0.46480       -7.05439
C          5.39520        0.07086       -8.48978
C          5.42674        1.29390       -9.41160
S          4.73465        0.97482      -11.05138
C          2.97008        1.20758      -10.75117
S          2.35068        1.56857       -9.23864
N          2.22468        1.06367      -11.86749
C          2.79017        0.74321      -13.18695
C          2.80379       -0.76044      -13.49477
C          3.41076       -1.06866      -14.86795
C          3.42008       -2.56527      -15.19018
C          0.76244        1.23096      -11.82225
C          0.32037        2.67236      -12.09834
C         -1.20473        2.82101      -12.07466
C         -1.66770        4.24848      -12.37417
N          6.16410        0.44428       -4.22539
H          2.42324        3.26557        2.65041
H          1.63583        2.14676        1.75378
H          3.95955        1.40443        1.91370
H          4.41972        3.05463        1.46418
H          3.32057        2.78212       -0.75179
H          2.81692        1.14585       -0.32810
H          5.22107        0.45285       -0.08135
H          5.74298        2.08368       -0.50369
H          4.54332        1.86480       -2.73017
H          4.14974        0.19500       -2.34647
H          6.98524        1.36386       -2.56546
H          6.83849       -0.73403       -1.12491
H          7.88285       -0.84267       -2.54839
H          5.04931       -1.97760       -2.22951
H          6.97020       -3.28957       -1.29156
H          7.73615       -3.30148       -2.88206
H          5.67555       -4.56674       -3.79177
H          5.01869       -4.57435       -2.15704
H          7.05776       -5.89189       -1.38583
H          7.69817       -5.84940       -3.03087
H          3.79312       -7.92896       -0.11526
H          5.25442       -8.84928       -0.58786
H          2.50253       -9.09459       -1.96552
H          3.16279      -10.25372       -0.78814
H          3.96727      -10.04546       -2.35763
H          3.76313       -8.38635       -4.54667
H          5.34933       -9.11707       -4.93161
H          3.97752       -6.86600       -6.54639
H          4.07701       -8.57295       -7.03298
H          5.56098       -7.59851       -6.93110
H          5.65425       -2.71361       -4.66973
H          5.53222       -1.61073       -6.63443
H          6.74272        0.93132       -7.01314
H          4.99574        1.19867       -6.70431
H          4.37808       -0.34888       -8.50324
H          6.09745       -0.69530       -8.85552
H          6.45451        1.63487       -9.60503
H          4.84166        2.12036       -8.97976
H          3.80532        1.16258      -13.25329
H          2.18904        1.28158      -13.93550
H          1.77414       -1.15212      -13.44757
H          3.37270       -1.28251      -12.70861
H          4.44063       -0.67542      -14.90785
H          2.84905       -0.52692      -15.64750
H          4.00423       -3.13051      -14.44870
H          3.86102       -2.75850      -16.17725
H          2.40132       -2.97985      -15.19565
H          0.41948        0.90714      -10.83084
H          0.33734        0.54743      -12.57325
H          0.70775        2.99593      -13.07940
H          0.77524        3.33258      -11.34358
H         -1.58302        2.50767      -11.08756
H         -1.65217        2.12705      -12.80652
H         -1.25606        4.96188      -11.64520
H         -2.76235        4.33018      -12.33765
H         -1.34303        4.57353      -13.37361
H          6.10621        1.29565       -4.77323
