79

C          0.69306        0.29736        0.42981
C          2.22226        0.22740        0.42546
C          2.77332       -0.98961       -0.32623
C          4.30358       -1.03453       -0.39170
C          4.85113       -2.27520       -1.10552
C          6.37318       -2.26416       -1.28055
C          6.92427       -3.51574       -1.97249
C          8.42119       -3.43093       -2.29045
C          8.97940       -4.69350       -2.95698
C         10.42302       -4.53995       -3.44779
C         10.98998       -5.81542       -4.08196
C         12.39346       -5.63026       -4.66911
C         12.98781       -6.92945       -5.22903
C         14.36090       -6.71636       -5.88157
C         15.01681       -7.96811       -6.43367
O         14.21014       -8.63922       -7.34140
C         14.71341       -9.98412       -7.50112
C         15.06797      -10.40316       -6.02984
N         15.23369       -9.05447       -5.33421
C         16.26435      -11.29591       -5.82206
C         17.58081      -10.81274       -5.84291
C         18.63204      -11.71686       -5.66870
N         18.45340      -13.03310       -5.49601
C         17.19412      -13.48990       -5.48746
C         16.07181      -12.66816       -5.63731
C         15.82005      -10.07799       -8.54570
C         15.21191       -9.95385       -9.94426
O         14.09580      -10.34311      -10.22280
O         16.08620       -9.39812      -10.79392
C         15.64449       -9.28838      -12.19027
C         16.78933       -8.70633      -12.99766
C         16.40012       -8.53064      -14.46957
H          0.33060        1.17327        0.98531
H          0.25205       -0.59685        0.89534
H          0.29443        0.36569       -0.59364
H          2.59472        0.21055        1.46385
H          2.63125        1.14765       -0.02551
H          2.36708       -0.99657       -1.35347
H          2.39770       -1.91225        0.15096
H          4.71716       -0.98927        0.63135
H          4.67037       -0.12748       -0.90436
H          4.37606       -2.36211       -2.09881
H          4.54973       -3.17983       -0.54849
H          6.85797       -2.14709       -0.29545
H          6.66066       -1.37166       -1.86414
H          6.36842       -3.68608       -2.91147
H          6.72800       -4.40075       -1.34199
H          8.98635       -3.22472       -1.36458
H          8.59818       -2.56325       -2.95037
H          8.33664       -4.96711       -3.81221
H          8.91690       -5.53955       -2.25022
H         11.06963       -4.23130       -2.60744
H         10.46812       -3.71666       -4.18216
H         10.30852       -6.16264       -4.87819
H         11.00878       -6.62061       -3.32580
H         13.06850       -5.22021       -3.89835
H         12.35780       -4.87681       -5.47391
H         12.29931       -7.37456       -5.96265
H         13.05186       -7.65477       -4.39083
H         15.06552       -6.23945       -5.17927
H         14.27021       -6.02028       -6.73003
H         16.03271       -7.76798       -6.82321
H         13.86030      -10.57566       -7.85985
H         14.17887      -10.86648       -5.58564
H         16.15632       -8.97964       -4.88642
H         14.51079       -8.92567       -4.61265
H         17.81901       -9.75851       -6.01340
H         19.66701      -11.36514       -5.67478
H         17.07228      -14.56642       -5.34362
H         15.06906      -13.09826       -5.60653
H         16.29545      -11.07017       -8.48920
H         16.62149       -9.33913       -8.41062
H         14.74961       -8.64876      -12.21278
H         15.35379      -10.29063      -12.53705
H         17.66392       -9.36996      -12.91250
H         17.08136       -7.73686      -12.56465
H         16.10961       -9.48671      -14.92793
H         17.24202       -8.12972      -15.04714
H         15.55691       -7.83438      -14.58451
