68

C          0.56715        2.46704        5.01478
C          2.09506        2.44635        5.08768
C          2.75183        2.24780        3.71826
C          4.28350        2.21983        3.76631
C          4.90778        2.03488        2.38001
C          6.44292        2.00095        2.36226
C          7.05239        0.75688        3.06316
C          7.89728        0.12506        2.03150
N          7.88459        0.74966        0.89827
C          6.99898        1.96736        0.90790
C          7.66765        3.28273        0.48289
C          7.91589        3.47802       -1.02597
O          6.85597        3.00152       -1.84363
C          5.65165        3.78576       -1.87363
C          5.81321        5.25017       -2.25344
O          6.42358        5.34959       -3.52038
C          6.52308        6.69722       -3.97006
C          8.51930        0.22754       -0.32713
C         10.03189        0.51016       -0.43609
O         10.80427        0.08223        0.71456
C         10.86248       -1.24644        1.03695
O         10.18219       -2.10483        0.51246
C         11.82930       -1.48402        2.17386
S         10.96068       -1.29631        3.78260
C         10.52978       -0.09947       -1.75754
O         11.95037        0.01801       -1.91872
C         12.40786        1.25310       -2.29812
O         11.68182        2.21273       -2.45785
C         13.90800        1.24789       -2.45757
S         14.70865        1.69699       -0.87106
H          0.12111        2.61342        6.00720
H          0.17491        1.52237        4.61024
H          0.20946        3.27977        4.36588
H          2.42278        1.64276        5.76828
H          2.45799        3.38862        5.53095
H          2.42464        3.05355        3.03814
H          2.38460        1.30706        3.27186
H          4.60841        1.41053        4.44329
H          4.65694        3.15826        4.21155
H          4.57053        2.85719        1.72605
H          4.52611        1.10596        1.91907
H          6.82452        2.90625        2.85765
H          6.29186        0.02454        3.38987
H          7.63967        0.98076        3.96762
H          8.45666       -0.80652        2.15168
H          6.20296        1.73728        0.18007
H          8.60527        3.44050        1.03962
H          6.97795        4.06710        0.83383
H          8.80625        2.93101       -1.36651
H          8.12882        4.54307       -1.21412
H          5.12076        3.74411       -0.90160
H          5.02669        3.28182       -2.62307
H          6.39501        5.81203       -1.49142
H          4.79598        5.69499       -2.25606
H          7.02024        6.67306       -4.94628
H          7.12148        7.31194       -3.27264
H          5.52518        7.15833       -4.08093
H          8.00856        0.69678       -1.17851
H          8.34842       -0.85482       -0.35290
H         10.21851        1.59079       -0.45347
H         12.68990       -0.80826        2.13763
H         12.16587       -2.52543        2.13033
H         11.18665        0.03165        3.91813
H         10.01595        0.41606       -2.58315
H         10.32626       -1.17489       -1.79727
H         14.19762        1.95472       -3.24177
H         14.27662        0.24513       -2.70233
H         14.33714        2.99832       -0.89301
