51

C          7.85150        0.49866       -3.88916
C          7.07612        0.32020       -2.58177
C          7.54329       -0.88889       -1.76254
C          6.78874       -1.06876       -0.44113
C          7.29461       -2.25691        0.38333
C          6.61792       -2.40885        1.75120
C          7.04446       -3.64528        2.52420
O          8.46847       -3.58084        2.75677
C          9.01602       -4.73434        3.37939
C         10.54923       -4.63270        3.25323
C         11.27610       -5.95597        3.54124
C         11.02816       -6.51670        4.94869
C         11.05924       -3.45387        4.13204
O         12.41210       -3.12135        3.87790
C         12.55315       -2.59642        2.56707
C         12.18030       -3.64515        1.51950
N         10.79093       -4.13621        1.80949
N         10.20228       -5.07751        0.74543
O         10.02883       -4.20984       -0.36495
O         11.28303       -5.90039        0.40564
H          7.49552        1.37384       -4.44850
H          7.74315       -0.37877       -4.54371
H          8.92618        0.64178       -3.70134
H          6.00044        0.21590       -2.80005
H          7.17265        1.23086       -1.96717
H          8.62394       -0.78618       -1.55308
H          7.43851       -1.80338       -2.37420
H          5.71131       -1.19349       -0.64052
H          6.88172       -0.14945        0.16179
H          8.38278       -2.13564        0.52594
H          7.14199       -3.18873       -0.19980
H          5.52485       -2.46446        1.62399
H          6.81087       -1.51410        2.36454
H          6.82163       -4.56873        1.95601
H          6.52273       -3.70651        3.49436
H          8.65011       -5.65571        2.89312
H          8.74103       -4.77764        4.44799
H         12.35610       -5.80459        3.40389
H         10.96315       -6.70261        2.79970
H         11.37432       -5.83897        5.73955
H         11.58673       -7.45336        5.06352
H          9.97008       -6.74722        5.13111
H         10.99172       -3.75217        5.18515
H         10.40607       -2.57366        3.98266
H         13.60675       -2.31948        2.43554
H         11.93632       -1.68413        2.44620
H         12.85641       -4.50394        1.55812
H         12.17263       -3.22473        0.50616
H         10.09766       -3.36254        1.73277
H          9.05518       -4.11253       -0.42098
H         10.84875       -6.73748        0.15459
