46

C          0.99867       -0.62870       -0.30879
C          2.49343       -0.34453       -0.15331
C          2.83269        1.14857       -0.22966
C          4.33007        1.42665       -0.05682
C          4.65820        2.90844       -0.11096
O          6.07952        3.06778        0.08326
C          6.49547        4.41029        0.10041
C          7.99344        4.34092        0.40901
S          8.81206        5.93792        0.21540
N          8.17662        6.88408        1.42334
C          8.37944        6.52509        2.83430
C          8.22676        8.33179        1.13570
C         10.54348        5.50822        0.62597
C         11.26989        4.72124       -0.47921
C         11.40213        5.48705       -1.81417
N         12.44610        4.82286       -2.59496
O         12.54924        4.46406        0.05315
H          0.78827       -1.70463       -0.24685
H          0.62341       -0.27191       -1.27923
H          0.41370       -0.12921        0.47741
H          3.05721       -0.88374       -0.93267
H          2.84804       -0.74532        0.81091
H          2.26344        1.68924        0.54629
H          2.48882        1.55040       -1.19845
H          4.90243        0.90576       -0.84092
H          4.67560        1.02421        0.90896
H          4.11899        3.46252        0.68107
H          4.37261        3.34569       -1.08650
H          5.96369        4.99671        0.87420
H          6.32395        4.90984       -0.87572
H          8.49617        3.69717       -0.33006
H          8.19620        3.93291        1.40864
H          8.22149        5.45180        2.99067
H          7.62384        7.06371        3.42056
H          9.37870        6.80865        3.20176
H          8.04310        8.50460        0.06867
H          9.18939        8.78485        1.42272
H          7.42395        8.81278        1.70926
H         10.55560        4.94057        1.56635
H         11.04525        6.47622        0.77824
H         10.73286        3.76565       -0.66358
H         11.73964        6.51271       -1.59938
H         10.42325        5.55397       -2.32542
H         12.08540        4.04402       -3.14560
H         12.91457        5.46282       -3.23279
H         13.11509        4.36842       -0.75193
