83

C          0.39301       -0.32261        0.29826
C          1.91703       -0.33767        0.15893
C          2.56702       -1.59836        0.73997
C          4.08979       -1.63288        0.57753
C          4.74312       -2.89319        1.15403
C          6.25924       -2.94205        0.93937
C          6.92431       -4.19923        1.50963
C          8.42724       -4.25826        1.21666
C          9.09045       -5.50609        1.81879
C         10.59472       -5.68258        1.55003
O         11.23076       -4.40742        1.53347
C         12.64442       -4.53050        1.57023
C         13.16793       -5.17860        0.29484
N         12.45203       -6.52449        0.12470
C         10.92296       -6.52071        0.28993
C         10.24325       -6.21185       -1.07509
C         11.00430       -5.28395       -1.99495
C         11.92793       -5.82748       -2.90253
C         12.74023       -4.98573       -3.66978
C         12.61916       -3.60232       -3.55236
C         11.67256       -3.03159       -2.68236
C         10.88027       -3.88991       -1.90752
C         11.50618       -1.53776       -2.59524
C         14.67552       -5.39975        0.21850
C         15.44018       -4.08332        0.00273
C         16.93659       -4.29065       -0.25251
C         17.67184       -2.98301       -0.56715
C         19.17177       -3.16923       -0.81820
C         19.89095       -1.87329       -1.20674
C         21.39086       -2.05687       -1.46351
C         22.10038       -0.75947       -1.85912
H         -0.04149        0.59333       -0.12450
H          0.08728       -0.37851        1.35357
H         -0.06371       -1.17754       -0.22249
H          2.34256        0.55108        0.65510
H          2.19062       -0.24785       -0.90625
H          2.12876       -2.48937        0.25626
H          2.31000       -1.68082        1.81077
H          4.52968       -0.74137        1.05839
H          4.34171       -1.55153       -0.49496
H          4.28210       -3.78581        0.69557
H          4.52253       -2.96045        2.23365
H          6.72328       -2.04801        1.39159
H          6.47225       -2.87776       -0.14299
H          6.43250       -5.09556        1.09183
H          6.75772       -4.24341        2.59973
H          8.92260       -3.36159        1.61733
H          8.57016       -4.21573        0.12545
H          8.56530       -6.41737        1.48483
H          8.95645       -5.47265        2.91008
H         11.02162       -6.26091        2.39946
H         12.96139       -5.10327        2.46709
H         13.05100       -3.51523        1.65433
H         12.83411       -4.57939       -0.55998
H         12.86098       -7.19537        0.78922
H         12.67515       -6.85135       -0.83034
H         10.67433       -7.56049        0.55137
H          9.23675       -5.83016       -0.86790
H         10.10613       -7.17394       -1.59068
H         11.98887       -6.91190       -3.03822
H         13.45655       -5.41292       -4.37236
H         13.25351       -2.95188       -4.15740
H         10.17017       -3.45892       -1.19961
H         10.89849       -1.16775       -3.43525
H         12.47379       -1.02107       -2.64730
H         11.00156       -1.23932       -1.66794
H         14.89264       -6.06800       -0.63394
H         15.03957       -5.91339        1.12599
H         15.30934       -3.42230        0.87474
H         14.99236       -3.55579       -0.85700
H         17.06858       -4.99365       -1.09358
H         17.39839       -4.77446        0.62522
H         17.52483       -2.26968        0.26260
H         17.20935       -2.51450       -1.45392
H         19.31726       -3.91878       -1.61622
H         19.64375       -3.59438        0.08478
H         19.74657       -1.12099       -0.41122
H         19.41709       -1.45028       -2.11039
H         21.53189       -2.81102       -2.25649
H         21.86515       -2.47705       -0.56053
H         21.66042       -0.32400       -2.76855
H         23.16734       -0.92938       -2.05627
H         22.02647       -0.00439       -1.06261
