106

C         -0.11104        0.45273       -0.91093
C          1.39884        0.42163       -0.66038
C          2.03435       -0.94665       -0.93168
C          3.54291       -0.98793       -0.66778
C          4.17367       -2.36368       -0.90636
C          5.68157       -2.40547       -0.63743
C          6.29733       -3.79784       -0.80890
C          7.80868       -3.84009       -0.56046
C          8.41200       -5.24228       -0.69151
C          9.92558       -5.28849       -0.45819
C         10.52948       -6.68452       -0.64159
C         12.04423       -6.73842       -0.41795
C         12.65273       -8.11518       -0.70304
C         14.17143       -8.17279       -0.50977
C         14.78654       -9.51080       -0.93258
C         16.31262       -9.55355       -0.80427
C         16.92882      -10.83057       -1.38629
C         18.46075      -10.81381       -1.34699
C         19.16956      -11.91999       -2.08597
C         20.51658      -11.71077       -2.50845
C         21.21607      -12.66238       -3.21083
C         20.60409      -13.90561       -3.53086
C         19.25478      -14.14792       -3.08828
C         18.56857      -13.13505       -2.37847
C         18.64554      -15.39451       -3.38658
C         19.31882      -16.36082       -4.09545
N         20.59772      -16.06861       -4.50497
C         21.24892      -14.91940       -4.27400
C         22.64832      -14.78610       -4.82570
C         23.04916      -15.78372       -5.91105
O         22.52214      -16.88160       -6.07629
O         24.05483      -15.30691       -6.62962
C         24.59742      -16.16751       -7.70134
C         25.72133      -17.05267       -7.18953
C         26.35189      -17.86133       -8.33379
C         27.48526      -18.77370       -7.85943
C         18.80934      -17.73145       -4.41879
C         19.27524      -18.79492       -3.38269
C         18.83827      -20.18703       -3.77378
C         17.55586      -20.65288       -3.44887
C         17.14107      -21.92749       -3.84034
C         18.00609      -22.75450       -4.56233
C         19.28636      -22.30103       -4.89018
C         19.69745      -21.02458       -4.49934
H         -0.53498        1.44476       -0.70219
H         -0.63683       -0.27392       -0.27353
H         -0.34782        0.20429       -1.95650
H          1.60460        0.71404        0.38345
H          1.89315        1.18233       -1.28829
H          1.83735       -1.23931       -1.97847
H          1.53413       -1.70906       -0.30823
H          3.73766       -0.67642        0.37382
H          4.04601       -0.23847       -1.30411
H          3.97952       -2.68068       -1.94634
H          3.66954       -3.10939       -0.26639
H          5.87834       -2.04589        0.38808
H          6.19270       -1.69282       -1.30864
H          6.08523       -4.16920       -1.82719
H          5.79573       -4.50247       -0.12215
H          8.02466       -3.44212        0.44678
H          8.31371       -3.15841       -1.26751
H          8.18726       -5.64245       -1.69616
H          7.91212       -5.92215        0.02084
H         10.15168       -4.91969        0.55778
H         10.42198       -4.58564       -1.15056
H         10.30156       -7.04447       -1.66068
H         10.03280       -7.39275        0.04477
H         12.27453       -6.43905        0.61953
H         12.53367       -5.98770       -1.06343
H         12.41147       -8.40428       -1.74151
H         12.17060       -8.87281       -0.06070
H         14.41933       -7.96633        0.54590
H         14.64142       -7.36210       -1.09412
H         14.50956       -9.71354       -1.98245
H         14.34159      -10.32895       -0.33975
H         16.60278       -9.44853        0.25522
H         16.74268       -8.67967       -1.32420
H         16.59545      -10.94374       -2.43229
H         16.53845      -11.70460       -0.83872
H         18.80867      -10.82931       -0.29720
H         18.82587       -9.85348       -1.74813
H         20.99536      -10.75852       -2.27351
H         22.24012      -12.45576       -3.52020
H         17.54130      -13.32880       -2.06857
H         17.62667      -15.59173       -3.05304
H         21.13679      -16.74436       -5.09630
H         23.37353      -14.91075       -4.00120
H         22.81184      -13.77162       -5.20967
H         24.95270      -15.44430       -8.44524
H         23.76835      -16.75200       -8.11994
H         25.32995      -17.73940       -6.42199
H         26.48714      -16.42498       -6.70673
H         26.73291      -17.16855       -9.10206
H         25.57253      -18.46582       -8.82631
H         28.29566      -18.19635       -7.39159
H         27.91766      -19.33286       -8.69913
H         27.12784      -19.50612       -7.12120
H         19.15536      -18.03060       -5.42063
H         17.71203      -17.71181       -4.45579
H         18.87129      -18.52552       -2.39497
H         20.37279      -18.76142       -3.29780
H         16.87775      -20.01688       -2.87451
H         16.14342      -22.27871       -3.57480
H         17.68546      -23.75236       -4.86281
H         19.96931      -22.94536       -5.44495
H         20.70324      -20.67927       -4.75125
