71

C          0.70165       -1.00323       -0.39119
C          2.20668       -0.74711       -0.49846
C          2.68858        0.41791        0.37251
C          4.19577        0.67107        0.27794
C          4.68598        1.81689        1.16785
C          6.19486        2.05691        1.07179
C          6.70639        3.15861        2.00418
C          8.21573        3.38741        1.89199
C          8.76368        4.40812        2.89347
C         10.27149        4.62571        2.75110
C         10.86262        5.56970        3.80338
C         12.36679        5.77367        3.59578
C         13.06166        6.57391        4.69685
O         14.48680        6.63273        4.52669
C         14.88648        7.31265        3.38312
I         16.96958        7.94684        3.70689
N         14.03114        8.45909        3.13425
C         13.08858        8.88044        4.02085
N         12.66940       10.14578        4.01277
N         12.56943        7.95971        4.85086
C         11.58254        8.28181        5.88912
C         12.13696        9.03915        7.12355
C         11.60560       10.47232        7.19960
O         11.42799       11.13895        6.16129
N         11.36608       10.94194        8.44427
C         10.92434       12.22280        8.87802
C         10.72478       12.37183       10.25988
C         10.29564       13.59151       10.77644
C         10.06329       14.67101        9.91952
C         10.26387       14.51712        8.54618
C         10.69262       13.30074        8.01042
H          0.38889       -1.84386       -1.02566
H          0.12317       -0.12008       -0.70153
H          0.40989       -1.24090        0.64271
H          2.47375       -0.54783       -1.55019
H          2.75748       -1.66064       -0.21650
H          2.41719        0.22152        1.42508
H          2.14415        1.33601        0.08842
H          4.46616        0.88243       -0.77182
H          4.73754       -0.25297        0.54701
H          4.41729        1.60282        2.21753
H          4.14920        2.74483        0.90274
H          6.46013        2.30681        0.02929
H          6.72768        1.11678        1.29974
H          6.45358        2.89763        3.04711
H          6.17372        4.10200        1.79113
H          8.46198        3.71176        0.86567
H          8.73993        2.42644        2.03722
H          8.53750        4.06818        3.91938
H          8.23785        5.37091        2.76884
H         10.49229        5.01882        1.74329
H         10.78825        3.65252        2.81545
H         10.67455        5.15312        4.80855
H         10.33878        6.53951        3.76029
H         12.53535        6.25176        2.61777
H         12.87522        4.79704        3.56354
H         12.93052        6.08641        5.67251
H         14.95186        6.67984        2.48752
H         14.38389        9.13824        2.46636
H         13.20681       10.82312        3.48250
H         12.07733       10.53104        4.80278
H         11.15465        7.32427        6.20257
H         10.76416        8.85583        5.43118
H         13.23578        9.09239        7.06318
H         11.90569        8.48236        8.04172
H         11.52292       10.28358        9.20271
H         10.90621       11.52894       10.93167
H         10.14247       13.69702       11.85050
H          9.72861       15.62691       10.32204
H         10.08564       15.35557        7.87247
H         10.84265       13.18836        6.94112
