74

C          0.38909       -0.26732       -0.34161
C          1.90461       -0.13666       -0.17157
C          2.57566       -1.42959        0.30601
C          4.09179       -1.29997        0.48404
C          4.76968       -2.59106        0.95417
C          6.28216       -2.43654        1.14971
C          6.96917       -3.72880        1.61194
C          8.45388       -3.52083        1.83779
O          9.04486       -4.78159        2.26393
C         10.38979       -4.66275        2.55375
N         10.93901       -6.03663        2.79209
C         12.09810       -6.14750        3.47972
C         12.67168       -7.38976        3.67200
C         12.04548       -8.52407        3.14178
C         10.82219       -8.40793        2.43659
C         10.30322       -7.12074        2.28873
C         10.11006       -9.61520        1.88869
C          8.69866       -9.42495        1.32908
C          8.00776      -10.80504        1.30074
O          8.19208      -11.60212        2.21654
N          7.19849      -11.01965        0.22075
C          6.40735      -12.15154       -0.10091
C          6.32705      -13.29423        0.71087
C          5.52669      -14.36191        0.29906
C          4.80980      -14.31044       -0.89800
C          4.89248      -13.16840       -1.69987
C          5.68601      -12.09450       -1.30518
C         12.72939       -9.87255        3.23893
O         13.01359      -10.49810        2.24699
C         12.98507      -10.47980        4.66483
C         14.42675      -11.04543        4.94103
C         15.63087      -10.04764        4.77856
C         15.69600       -8.90375        5.84189
O         15.08040       -7.87699        5.68434
O         16.46437       -9.14180        6.90394
F         16.77304      -10.79904        4.85641
F         15.56987       -9.48368        3.54139
F         14.44865      -11.49574        6.22892
F         14.63817      -12.08898        4.11109
F         12.67812       -9.57026        5.63432
F         12.11567      -11.52237        4.78015
H         -0.05889        0.67466       -0.68580
H         -0.09798       -0.53885        0.60669
H          0.13433       -1.04400       -1.07795
H          2.12724        0.67247        0.54452
H          2.35815        0.17458       -1.12787
H          2.35843       -2.23970       -0.41255
H          2.12080       -1.74462        1.26174
H          4.30535       -0.49322        1.20709
H          4.54508       -0.97742       -0.46981
H          4.57427       -3.39573        0.22400
H          4.31153       -2.92289        1.90201
H          6.47063       -1.63695        1.88681
H          6.73877       -2.09406        0.20512
H          6.82550       -4.52191        0.86023
H          6.51171       -4.08644        2.54799
H          8.63108       -2.76354        2.62237
H          8.96271       -3.18848        0.91472
H         10.58648       -4.08458        3.47618
H         10.96900       -4.22293        1.71750
H         12.53036       -5.22637        3.86778
H         13.59843       -7.46214        4.24569
H          9.37044       -6.90404        1.77480
H         10.02887      -10.37616        2.68613
H         10.75558      -10.07554        1.12386
H          8.70505       -8.94507        0.33852
H          8.08941       -8.79569        2.00069
H          7.15605      -10.27061       -0.46386
H          6.88444      -13.33976        1.64189
H          5.46732      -15.24869        0.93095
H          4.19017      -15.15279       -1.20539
H          4.33859      -13.11177       -2.63724
H          5.75032      -11.20381       -1.93564
H         16.92840       -9.99831        6.81550
