31

F          7.27001        1.11051        0.38741
C          6.29999        0.24034        0.94121
C          4.94128        0.91742        0.97019
C          4.45777        1.39545       -0.41322
C          5.01586        2.75683       -0.79248
O          4.37739        3.78052       -0.07930
C          4.70748        5.04126       -0.68947
C          4.75445        4.75676       -2.23253
N          4.69208        3.15391       -2.23030
N          5.86246        5.18973       -2.96833
C          5.97447        5.67453       -0.09100
C          5.78328        6.08071        1.34151
C          6.39323        5.59384        2.42568
Br         7.66571        4.19358        2.36515
Br         4.53437        7.50589        1.60814
H          6.63807       -0.02610        1.95233
H          6.29289       -0.66315        0.31084
H          4.94802        1.75742        1.67964
H          4.22144        0.18339        1.36236
H          3.35883        1.47236       -0.42611
H          4.75167        0.66243       -1.18252
H          6.11555        2.79275       -0.70965
H          3.85561        5.70304       -0.47902
H          3.81330        5.05194       -2.71197
H          5.37302        2.81199       -2.92096
H          3.75223        2.81716       -2.47846
H          6.67185        5.52630       -2.45939
H          5.68159        5.70433       -3.82211
H          6.21996        6.58053       -0.66949
H          6.83327        4.98629       -0.14567
H          6.21646        5.96800        3.43106
