58

F          1.45364        0.12485        0.62414
C          2.77013        0.04956        0.92695
C          3.22222       -1.43492        1.08747
C          2.67517       -2.56015        0.12776
C          2.86219       -2.46606       -1.43254
C          4.29065       -2.55582       -1.98170
O          4.91714       -1.29433       -1.82096
C          6.31574       -1.33393       -1.65583
C          6.68592        0.11193       -1.31950
N          8.07832        0.21962       -0.76914
C          9.14624        0.03414       -1.81659
C         10.54374        0.00261       -1.17957
O         10.74584        1.17715       -0.37133
C          9.75388        1.41663        0.61885
C          8.32521        1.52301        0.05404
C          7.98100        2.76904       -0.72589
C          6.70961        3.33955       -0.54136
C          6.34047        4.49703       -1.22619
C          7.24256        5.10541       -2.10229
C          8.51742        4.56060       -2.27696
C          8.89012        3.40174       -1.59399
C         10.91311       -1.32350       -0.52690
C         12.00897       -2.01516       -1.06636
C         12.40312       -3.25603       -0.56319
C         11.70575       -3.83291        0.49989
C         10.61658       -3.15898        1.05656
C         10.22397       -1.91853        0.54852
F          2.18160       -3.54133       -1.93447
F          2.25028       -1.33148       -1.87485
F          3.29481       -3.71499        0.52876
F          1.34907       -2.67868        0.37277
F          4.59871       -1.45501        1.06416
F          2.83707       -1.80284        2.34166
F          3.48787        0.67365       -0.05819
H          2.95578        0.56776        1.88314
H          4.20673       -2.83108       -3.04672
H          4.82635       -3.35734       -1.44712
H          6.82121       -1.69876       -2.56953
H          6.59849       -2.00689       -0.81864
H          5.99138        0.46666       -0.54871
H          6.60684        0.77629       -2.18768
H          8.19013       -0.55697       -0.09719
H          9.04432        0.87683       -2.51183
H          8.94480       -0.90319       -2.34722
H         11.24749        0.14650       -2.01217
H         10.01374        2.37635        1.08294
H          9.79097        0.64733        1.41086
H          7.62000        1.43040        0.89386
H          6.00389        2.88188        0.15595
H          5.35199        4.92866       -1.06879
H          6.95716        6.01192       -2.63643
H          9.23249        5.04659       -2.94102
H          9.89965        3.00913       -1.71325
H         12.56571       -1.56951       -1.89327
H         13.26071       -3.76916       -0.99871
H         12.01213       -4.79996        0.89868
H         10.07399       -3.59399        1.89617
H          9.39161       -1.42131        1.05413
