36

C          2.90573        2.20729       -1.77723
C          3.17743        2.12727       -0.47372
C          3.01500        0.85319        0.30742
N          4.30610        0.39215        0.87941
N          5.17535        1.30041        1.41507
C          6.24517        0.60811        1.71614
N          6.06623       -0.71719        1.42827
C          4.81775       -0.85489        0.89449
N          4.20856       -2.01206        0.49366
C          4.97542       -2.95946       -0.27703
C          5.43249       -2.44771       -1.67417
F          4.33025       -2.07508       -2.37590
F          6.23309       -1.34911       -1.50996
F          6.12860       -3.33868        0.40813
F          4.23655       -4.06913       -0.47229
C          2.89136       -2.42671        1.09183
C          2.97941       -3.39021        2.28663
C          3.73141       -2.79013        3.47895
C          1.54614       -3.78410        2.67399
H          2.98852        3.15373       -2.31111
H          2.57978        1.34101       -2.35759
H          3.49474        3.00507        0.09205
H          2.65194        0.04009       -0.33382
H          2.31724        0.98686        1.14997
H          7.15363        1.02427        2.14001
H          6.72321       -1.48430        1.55623
H          5.98348       -3.22840       -2.22119
H          2.29353       -2.86067        0.28117
H          2.39299       -1.49933        1.40642
H          3.50537       -4.30009        1.95675
H          3.25502       -1.86001        3.82751
H          4.78513       -2.57656        3.24961
H          3.72960       -3.49286        4.32231
H          0.96909       -2.90976        3.01244
H          1.56212       -4.50834        3.49830
H          1.00722       -4.24513        1.83471
