72

C          0.63445        0.69697        0.36100
C          2.14514        0.90527        0.49525
C          2.88084        0.83339       -0.84726
C          4.38911        1.08506       -0.73521
C          5.09641        0.95618       -2.09214
C          6.57180        1.37773       -2.17364
C          6.89186        1.98667       -3.55899
N          8.27931        2.27915       -3.83805
C          9.16478        1.13624       -3.62145
C          8.98972        0.57870       -2.19952
N          7.53159        0.19507       -1.97178
C          7.36145       -0.58933       -0.68824
C          7.68614        0.20699        0.57992
O          7.35052       -0.59393        1.72083
C          8.31390       -1.52085        2.08848
O          9.33139       -1.67250        1.44766
C          7.90910       -2.26128        3.33724
C          6.54937       -2.98125        3.22697
C          6.49240       -4.00726        2.09254
C         10.64392        1.45381       -4.04210
C         11.25217        2.52672       -3.08959
C         12.78170        2.76088       -3.05225
C         13.38839        3.32778       -4.34437
C         13.09517        3.69673       -1.87393
C         11.47520        0.15590       -4.05737
O         11.62535       -0.38763       -2.73645
C         10.58070        1.93570       -5.50913
H          0.13767        0.74093        1.33894
H          0.40223       -0.28120       -0.08583
H          0.17955        1.46864       -0.27722
H          2.56434        0.14723        1.17897
H          2.34341        1.88226        0.96771
H          2.44295        1.56750       -1.54587
H          2.70779       -0.15713       -1.30411
H          4.81091        0.38919        0.00783
H          4.56245        2.09884       -0.33511
H          4.55610        1.59237       -2.81278
H          4.97945       -0.06792       -2.49203
H          6.82999        2.09874       -1.38397
H          6.29728        2.90528       -3.65785
H          6.51696        1.29072       -4.33408
H          8.60410        3.10552       -3.33431
H          8.82298        0.34658       -4.32322
H          9.24159        1.32834       -1.44008
H          9.59341       -0.31918       -2.02086
H          7.29613       -0.46802       -2.72656
H          8.03842       -1.44964       -0.76419
H          6.32723       -0.95089       -0.65397
H          7.06711        1.10772        0.67074
H          8.75067        0.47477        0.61891
H          7.87524       -1.53131        4.16170
H          8.71687       -2.97290        3.55195
H          5.75039       -2.23493        3.10666
H          6.36313       -3.48035        4.18903
H          6.62484       -3.53389        1.10663
H          5.52532       -4.52636        2.07919
H          7.27881       -4.76831        2.19796
H         10.97449        2.27191       -2.05517
H         10.77089        3.49705       -3.30818
H         13.26485        1.79369       -2.83446
H         12.84932        4.22710       -4.67975
H         13.38660        2.60833       -5.17277
H         14.43505        3.61584       -4.17557
H         12.64044        4.68886       -2.02302
H         14.17801        3.84492       -1.76635
H         12.71726        3.29272       -0.92347
H         12.46168        0.38249       -4.49159
H         10.98427       -0.57917       -4.72332
H         12.33291       -1.04930       -2.75255
H         10.08795        2.91039       -5.58882
H         10.01305        1.22742       -6.13081
H         11.58309        2.02491       -5.94061
