107

C          0.51287        0.46463        0.03208
C          2.00497        0.14703        0.16025
C          2.52961       -0.77934       -0.94256
C          4.02819       -1.07405       -0.83094
C          4.56368       -2.01289       -1.91678
C          6.07020       -2.26476       -1.80506
C          6.63155       -3.21338       -2.86883
C          8.14768       -3.40431       -2.76114
C          8.73933       -4.34394       -3.81599
C         10.26482       -4.45843       -3.73409
C         10.87802       -5.37544       -4.79676
C         12.41016       -5.36220       -4.79966
C         13.02816       -6.24668       -5.88662
C         14.55103       -6.11474       -5.99424
C         15.14964       -6.97033       -7.11520
C         16.63653       -6.70370       -7.37131
C         17.19479       -7.55451       -8.51929
C         18.64146       -7.18898       -8.88193
C         19.27839       -7.92851      -10.06996
C         20.79591       -7.65673      -10.14008
O         21.37636       -8.71158      -10.88952
C         22.77974       -8.53500      -11.20049
C         23.23974       -9.70849      -12.04572
C         24.70115       -9.56703      -12.49308
C         25.17132      -10.72609      -13.37975
C         26.62311      -10.58222      -13.84770
C         27.08917      -11.72221      -14.76127
C         28.54211      -11.57432      -15.21923
N         19.16367       -9.45893       -9.90813
C         18.15204       -9.91129      -10.95502
O         18.37535       -9.03964      -12.00067
C         18.50431       -7.71471      -11.42969
C         19.12351       -6.79687      -12.47066
C         19.04681       -5.30625      -12.11320
C         19.61616       -4.40918      -13.21715
C         19.58685       -2.91826      -12.86497
C         20.13226       -2.02637      -13.98246
H          0.16822        1.12172        0.84248
H         -0.09505       -0.45213        0.06721
H          0.29242        0.96887       -0.92093
H          2.20146       -0.31476        1.14318
H          2.58414        1.08627        0.14907
H          2.31816       -0.32806       -1.92848
H          1.96532       -1.72856       -0.91978
H          4.24097       -1.50972        0.16154
H          4.58838       -0.12275       -0.86611
H          4.33635       -1.59018       -2.91153
H          4.02419       -2.97516       -1.86818
H          6.29802       -2.66880       -0.80276
H          6.60245       -1.29880       -1.86570
H          6.38255       -2.82714       -3.87326
H          6.12908       -4.19364       -2.78990
H          8.39738       -3.78295       -1.75423
H          8.63982       -2.41848       -2.84035
H          8.45691       -3.98694       -4.82234
H          8.28633       -5.34580       -3.71368
H         10.55457       -4.81447       -2.72993
H         10.70449       -3.44994       -3.83269
H         10.51538       -5.06759       -5.79358
H         10.51502       -6.40775       -4.64982
H         12.78645       -5.67544       -3.81022
H         12.75807       -4.32332       -4.93882
H         12.57873       -5.98627       -6.86133
H         12.75876       -7.30154       -5.70312
H         15.01999       -6.38265       -5.03188
H         14.80732       -5.05533       -6.17110
H         14.58972       -6.78076       -8.04819
H         14.99785       -8.03947       -6.88392
H         17.21980       -6.88660       -6.45295
H         16.77792       -5.63675       -7.61520
H         16.53456       -7.43328       -9.39281
H         17.11909       -8.61990       -8.22888
H         19.28600       -7.32041       -7.99671
H         18.69082       -6.11470       -9.12396
H         21.22243       -7.61690       -9.11908
H         20.97561       -6.67798      -10.61315
H         23.35296       -8.46018      -10.25871
H         22.89491       -7.58205      -11.74771
H         22.58460       -9.78412      -12.92876
H         23.11240      -10.64165      -11.47217
H         25.35494       -9.49506      -11.60702
H         24.82514       -8.61732      -13.04174
H         24.50953      -10.80084      -14.26028
H         25.05516      -11.67736      -12.83157
H         27.28762      -10.52535      -12.96751
H         26.74214       -9.62066      -14.37773
H         26.42753      -11.77210      -15.64276
H         26.96364      -12.68394      -14.23533
H         28.69356      -10.63577      -15.77311
H         28.84099      -12.39995      -15.87907
H         29.23285      -11.56734      -14.36305
H         18.91219       -9.73493       -8.95259
H         20.11173       -9.81230      -10.16965
H         17.15147       -9.82715      -10.49461
H         18.36033      -10.94174      -11.26780
H         17.49187       -7.34854      -11.18295
H         18.56505       -6.97168      -13.40314
H         20.15941       -7.10766      -12.67541
H         19.58821       -5.09694      -11.17356
H         17.99580       -5.03030      -11.91985
H         19.05110       -4.57982      -14.14957
H         20.65521       -4.71324      -13.43505
H         20.16799       -2.75233      -11.94155
H         18.55139       -2.62136      -12.62790
H         21.17571       -2.27810      -14.22292
H         20.10489       -0.96683      -13.69637
H         19.54406       -2.13653      -14.90505
