51

C          5.66800       -1.04143        3.60213
C          5.32468       -0.63166        2.16796
C          6.10030        0.60106        1.68789
C          5.75310        1.01682        0.25435
C          6.55727        2.22377       -0.24257
C          6.21946        2.60874       -1.68862
C          6.92498        3.87996       -2.20631
P          8.74046        3.80137       -2.16510
C          9.41535        2.30755       -2.96995
C         10.92358        2.28649       -2.84353
C         11.52741        1.87964       -1.64365
C         12.91694        1.89848       -1.51451
C         13.71367        2.32616       -2.58054
C         13.11832        2.72870       -3.77885
C         11.72837        2.71187       -3.91049
C          9.51778        5.27571       -2.90773
C          9.09514        6.66449       -2.38499
C          9.27582        6.94444       -0.89164
C         10.71091        6.75369       -0.29518
Br        12.07349        7.75716       -1.26857
F         10.73444        7.09063        1.00127
F         11.03094        5.42144       -0.36728
Br         8.65316        8.75317       -0.51257
F          8.46638        6.05736       -0.17506
H          5.10377       -1.93268        3.90736
H          5.43125       -0.23926        4.31647
H          6.73784       -1.27507        3.70817
H          4.24286       -0.43201        2.08983
H          5.52625       -1.47386        1.48460
H          7.18407        0.39778        1.75900
H          5.90582        1.44529        2.37227
H          4.67621        1.24816        0.18859
H          5.92124        0.16327       -0.42546
H          7.63361        1.98695       -0.14646
H          6.38002        3.08801        0.42064
H          5.13785        2.79532       -1.77441
H          6.42761        1.76505       -2.36606
H          6.65040        4.75961       -1.60284
H          6.64661        4.09831       -3.24975
H          9.15765        3.72899       -0.82246
H          9.08257        2.31174       -4.01848
H          8.94323        1.44629       -2.47355
H         10.91260        1.53166       -0.80987
H         13.37898        1.57073       -0.58318
H         14.79908        2.33576       -2.48042
H         13.73723        3.04922       -4.61712
H         11.26919        3.01498       -4.85409
H          9.27458        5.22422       -3.98098
H         10.60214        5.11485       -2.82417
H          8.03421        6.85230       -2.59978
H          9.66426        7.41723       -2.94534
