68

C          2.44279        1.67614       -1.76521
C          3.33605        1.22364       -0.60797
C          4.07945       -0.08575       -0.89223
C          4.94675       -0.55529        0.27972
C          5.54023       -1.95165        0.07241
C          6.32813       -2.45398        1.28578
C          6.92722       -3.84604        1.06973
C          7.63449       -4.36393        2.34643
C          8.15975       -5.74634        2.20847
N          9.43593       -6.12345        1.96100
C          9.48158       -7.49749        1.88281
N          8.27524       -7.98946        2.07551
N          7.47387       -6.89571        2.26330
C          6.03693       -7.05808        2.50711
C          5.69052       -7.16494        3.99879
C          4.22987       -6.78774        4.27570
S          3.89349       -5.01729        4.02402
C          3.01273       -4.96495        2.47796
S          2.73589       -6.24392        1.48380
N          2.57124       -3.66998        2.19180
C          1.96887       -3.25569        0.99717
C          1.69796       -1.92968        1.16230
N          2.10271       -1.48837        2.41952
C          2.61365       -2.52997        3.01255
C         10.73494       -8.26148        1.58809
C         11.98292       -7.42492        1.79802
C         12.62000       -6.86238        0.68179
C         13.75758       -6.06573        0.82757
C         14.26525       -5.82647        2.10527
C         13.63556       -6.38355        3.22047
C         12.49174       -7.18558        3.09627
C         11.85286       -7.78685        4.32439
H          1.92940        2.61854       -1.53181
H          1.67000        0.92605       -1.99227
H          3.02608        1.83432       -2.68426
H          2.73020        1.10107        0.30589
H          4.06876        2.01444       -0.37544
H          4.70415        0.03127       -1.79503
H          3.34637       -0.87439       -1.13733
H          4.34068       -0.55178        1.20040
H          5.76125        0.16997        0.44982
H          6.19289       -1.95092       -0.81783
H          4.72448       -2.66241       -0.14629
H          5.66221       -2.47994        2.16575
H          7.13284       -1.73998        1.53143
H          7.64515       -3.83120        0.23430
H          6.12822       -4.54724        0.77901
H          6.92639       -4.33614        3.18930
H          8.46830       -3.69828        2.61377
H         10.24826       -5.51406        1.86592
H          5.72856       -7.94839        1.94891
H          5.53444       -6.19444        2.05507
H          6.35478       -6.50817        4.58134
H          5.87034       -8.18990        4.35552
H          3.97751       -6.97797        5.32687
H          3.52451       -7.33802        3.63351
H          1.80395       -3.95289        0.18603
H          1.23252       -1.25084        0.45479
H          3.00281       -2.55847        4.02569
H         10.68383       -8.60242        0.54201
H         10.72683       -9.17075        2.20641
H         12.22896       -7.06961       -0.31712
H         14.24831       -5.64771       -0.05145
H         15.15734       -5.21343        2.23617
H         14.04535       -6.20107        4.21566
H         12.37587       -7.46613        5.23265
H         11.88236       -8.88705        4.29960
H         10.79530       -7.50037        4.43705
