52

N          1.10227        0.37826        2.27870
C          2.21246        0.97733        1.53661
C          3.54319        0.65537        2.22385
C          4.74683        1.22345        1.46805
C          6.06044        0.88973        2.17717
N          7.20912        1.51824        1.50899
N          7.46751        2.84183        1.77182
C          8.51033        3.12144        1.00679
N          8.89608        2.01535        0.28878
C          8.04797        0.99946        0.61405
C          8.15642       -0.39487        0.11260
C          9.10042       -1.24113        1.01095
O          8.46754       -1.25670        2.28408
C          9.31106       -1.18242        3.45688
C          8.63201       -0.26608        4.44002
C          7.58990       -0.74010        5.24988
C          6.89030        0.13088        6.08797
C          7.23073        1.48679        6.12969
C          8.27693        1.96596        5.33554
C          8.97098        1.09299        4.49504
C          9.31763       -2.64216        0.44851
N          9.12181        4.33622        0.89578
N          8.90899        5.28861        1.91274
N         10.39499        4.27724        0.28859
H          0.23401        0.44272        1.74803
H          0.94233        0.87293        3.15753
H          2.13231        2.07631        1.40115
H          2.21274        0.53849        0.52587
H          3.62713       -0.43813        2.32731
H          3.53074        1.06340        3.24957
H          4.65609        2.31747        1.37841
H          4.77443        0.82071        0.44134
H          6.26359       -0.18596        2.22219
H          6.07642        1.27200        3.20603
H          9.69284        1.99875       -0.34365
H          8.52266       -0.37952       -0.92380
H          7.16416       -0.86617        0.10192
H         10.07406       -0.71797        1.09071
H         10.30223       -0.78792        3.17577
H          9.44703       -2.19459        3.87129
H          7.32505       -1.79890        5.22166
H          6.08538       -0.24994        6.71736
H          6.69318        2.16494        6.79326
H          8.55917        3.01867        5.38460
H          9.79445        1.46781        3.88150
H          8.36165       -3.17484        0.35436
H          9.96541       -3.21900        1.12083
H          9.80121       -2.60807       -0.53794
H          8.68039        4.81470        2.79258
H          8.11856        5.88378        1.65559
H         11.11461        4.39128        1.01148
H         10.47624        5.07176       -0.34911
