71

C          1.82068        0.78973       -1.69096
C          2.95602        0.17249       -0.87116
C          3.98631       -0.57454       -1.72616
C          5.09913       -1.23083       -0.90151
C          6.12092       -1.98629       -1.76177
C          7.15049       -2.72279       -0.92175
O          8.06409       -3.40783       -1.81224
C          8.84178       -4.40437       -1.18067
N          9.40292       -5.27315       -2.20075
C         10.22065       -4.80018       -3.15548
N         10.58112       -3.51766       -3.27906
C         11.50517       -3.33415       -4.41999
C         11.40674       -4.70907       -5.13388
N         10.80947       -5.57231       -4.09219
C         10.43702       -6.95125       -4.30598
O          9.04961       -6.94632       -4.60993
C          8.41623       -8.14366       -4.94989
C          9.06644       -9.37796       -4.87424
C          8.39286      -10.56332       -5.20708
C          9.09883      -11.89312       -5.15096
C          7.05687      -10.46572       -5.61045
C          6.42550       -9.22415       -5.68357
C          7.07431       -8.02569       -5.36149
C          6.32005       -6.70717       -5.48111
C          6.11750       -5.98562       -4.13381
C          6.91413       -5.76273       -6.54459
C         11.11694       -2.13306       -5.27831
C         12.10207       -1.94767       -6.42595
O         12.96783       -2.75257       -6.71347
O         11.87336       -0.79162       -7.06706
C         12.74590       -0.51442       -8.19728
H          1.10447        1.31895       -1.04829
H          1.26276        0.02023       -2.24514
H          2.20356        1.51328       -2.42598
H          2.53551       -0.52181       -0.12395
H          3.46760        0.96170       -0.29480
H          4.43171        0.12397       -2.45622
H          3.47222       -1.34835       -2.32290
H          4.64523       -1.92727       -0.17507
H          5.61546       -0.46100       -0.30272
H          6.63676       -1.28471       -2.43807
H          5.60494       -2.72140       -2.40105
H          6.65880       -3.47208       -0.27399
H          7.71503       -2.03099       -0.27018
H          8.22971       -5.03423       -0.51412
H          9.66784       -3.96575       -0.58948
H          8.86766       -6.09975       -2.46315
H          9.99702       -2.78486       -2.88131
H         12.52491       -3.18961       -4.03132
H         12.39052       -5.07930       -5.43581
H         10.74911       -4.67384       -6.01828
H         10.64795       -7.53909       -3.39438
H         11.04264       -7.34897       -5.13539
H         10.10652       -9.44461       -4.55211
H         10.01322      -11.84414       -4.54580
H          9.38600      -12.22665       -6.15992
H          8.45007      -12.67087       -4.72640
H          6.50289      -11.36819       -5.87325
H          5.38374       -9.17438       -6.00772
H          5.31596       -6.99021       -5.83642
H          7.04640       -5.52099       -3.77592
H          5.74996       -6.67671       -3.36254
H          5.37876       -5.17841       -4.24277
H          7.90345       -5.38927       -6.24439
H          6.25578       -4.89515       -6.69354
H          7.02289       -6.27432       -7.51014
H         11.09883       -1.21045       -4.67877
H         10.10462       -2.25779       -5.69573
H         12.40508        0.44676       -8.59000
H         12.64789       -1.30282       -8.95300
H         13.78828       -0.45285       -7.86253
