60

C          1.07354        0.90694       -0.04570
C          2.45099        0.27852        0.17904
C          3.10737       -0.21932       -1.11341
C          4.47270       -0.87913       -0.89407
C          5.13017       -1.37170       -2.18729
C          6.46059       -2.09592       -1.95671
C          7.11925       -2.58690       -3.24978
C          8.39312       -3.40435       -3.00728
C          9.05348       -3.88933       -4.30302
C         10.23142       -4.83262       -4.02525
N         10.96288       -5.27232       -5.23068
C         10.59493       -6.36390       -5.92141
N         11.38693       -6.86490       -6.89046
N          9.39737       -6.94373       -5.69591
I          8.89869       -8.90693       -6.12675
C         12.07631       -4.41583       -5.68908
C         13.42680       -4.75827       -5.04434
C         14.52151       -3.77821       -5.48017
C         15.87983       -4.07204       -4.81758
N         16.90750       -3.12824       -5.21311
C         17.69486       -3.23323       -6.34305
C         18.45562       -2.08282       -6.44768
C         18.11226       -1.24634       -5.35113
C         17.15222       -1.91147       -4.60881
H          0.63329        1.26087        0.89646
H          0.37207        0.18332       -0.48791
H          1.13254        1.76778       -0.72879
H          2.36188       -0.56253        0.88782
H          3.11743        1.01175        0.66438
H          3.21680        0.62642       -1.81525
H          2.43174       -0.93755       -1.61129
H          4.35813       -1.72871       -0.19743
H          5.14819       -0.16564       -0.38988
H          5.28965       -0.51625       -2.86687
H          4.43542       -2.04997       -2.71385
H          6.29312       -2.95547       -1.28388
H          7.15716       -1.42604       -1.42295
H          7.35303       -1.72305       -3.89567
H          6.39778       -3.20225       -3.81575
H          8.14875       -4.27281       -2.37026
H          9.11769       -2.80242       -2.43246
H          9.40479       -3.02740       -4.89292
H          8.30019       -4.39131       -4.93604
H          9.90615       -5.72605       -3.46995
H         10.96963       -4.33192       -3.38266
H         12.38334       -6.69346       -6.88621
H         11.04902       -7.64619       -7.44281
H          8.73454       -6.46629       -5.09412
H         11.79642       -3.38110       -5.44470
H         12.12945       -4.46666       -6.78598
H         13.72108       -5.79197       -5.29877
H         13.31951       -4.74072       -3.94734
H         14.22381       -2.74786       -5.22790
H         14.64696       -3.80562       -6.57452
H         16.22262       -5.08532       -5.07779
H         15.78368       -4.03901       -3.72162
H         17.66070       -4.12393       -6.96283
H         19.19084       -1.87743       -7.21856
H         18.53414       -0.27476       -5.11605
H         16.63873       -1.63097       -3.69450
