55

C         -0.69609        0.79736       -0.63721
O          0.32161        0.28060       -1.51754
C          1.59500        0.25983       -0.97965
C          2.49601        1.26344       -1.34975
C          3.81231        1.23122       -0.88565
C          4.22827        0.19592       -0.04361
C          3.32871       -0.80491        0.32596
C          1.99876       -0.79469       -0.12980
C          1.07358       -1.92053        0.15895
C          0.61319       -2.31858        1.44166
C          0.98293       -1.54545        2.68649
C          2.07229       -2.22563        3.53896
C          2.36031       -1.43613        4.82155
C          3.48719       -2.07990        5.63257
S          3.72769       -1.17246        7.18232
O          4.19341        0.16303        6.88696
O          2.59840       -1.40377        8.05261
Cl         5.34482       -2.23372        7.97120
C         -0.23479       -3.44389        1.57263
C         -0.67672       -4.23466        0.50090
C         -0.23601       -3.81145       -0.74558
C          0.58063       -2.69568       -0.88698
C          0.64335       -2.81587       -2.38801
N          1.72325       -3.77702       -2.84967
C          0.96477       -4.85044       -2.76550
C         -0.25328       -4.11055       -2.26062
N          3.03954       -3.56170       -2.98563
C          3.82318       -4.72358       -3.38473
C          3.43899       -2.22132       -3.42359
H         -1.63635        0.75287       -1.19676
H         -0.47609        1.84066       -0.36498
H         -0.78186        0.18812        0.27631
H          2.14491        2.06189       -2.00428
H          4.51043        2.01599       -1.17833
H          5.25440        0.16500        0.32320
H          3.66371       -1.62845        0.95761
H          0.07920       -1.42070        3.30387
H          1.31696       -0.53470        2.41018
H          2.99523       -2.32708        2.94557
H          1.75701       -3.25089        3.79282
H          1.44735       -1.38316        5.43461
H          2.63763       -0.40118        4.57041
H          4.45540       -2.04681        5.11480
H          3.26408       -3.11411        5.92910
H         -0.57435       -3.70260        2.57803
H         -1.33191       -5.09052        0.66049
H          0.44762       -1.98326       -3.07045
H          1.26099       -5.88816       -2.90496
H         -1.19945       -4.23060       -2.79735
H          3.68057       -5.53442       -2.65658
H          4.87876       -4.43535       -3.37995
H          3.55097       -5.08215       -4.39269
H          2.87611       -1.46398       -2.86618
H          3.29653       -2.08022       -4.50740
H          4.49779       -2.09627       -3.17479
