65

O          2.56593       -2.04029        0.16088
C          2.73740       -0.98411        0.76888
N          2.14271       -0.64171        1.94355
C          1.19825       -1.35994        2.72409
C          0.75461       -0.73590        3.90121
C         -0.16821       -1.37366        4.72660
C         -0.65685       -2.63841        4.38606
C         -0.21319       -3.25356        3.21370
C          0.71221       -2.62913        2.37441
C          3.66797        0.10114        0.17921
C          4.65535       -0.59280       -0.76123
C          5.23588        0.22028       -1.86189
N          5.99852       -0.30848       -2.79863
C          6.60992        0.57331       -3.80855
C          5.89592        1.95026       -3.66435
S          4.99695        1.89785       -2.03953
C          4.93957        2.30919       -4.82118
C          5.73466        2.49201       -6.09599
C          6.49054        3.65668       -6.29476
C          7.31326        3.77157       -7.41731
C          7.38596        2.73180       -8.34529
C          6.62019        1.56567       -8.18403
C          5.80158        1.46565       -7.04934
C          6.66423        0.46486       -9.21108
C          8.13505        0.63105       -3.62936
C          8.79776        1.26763       -4.85854
C         10.30404        1.50952       -4.75270
C         10.77343        2.93849       -4.28181
C         10.44077        3.46282       -2.83218
C         11.01413        2.69276       -1.58499
F         12.32023        2.44436       -1.72001
F         10.81627        3.44776       -0.49139
F         10.35919        1.52072       -1.40558
F         10.90895        4.72872       -2.76777
F          9.07371        3.50751       -2.68661
F         12.11539        3.01514       -4.43823
F         10.18541        3.83943       -5.12816
F         10.91666        0.57344       -3.95706
F         10.84259        1.38170       -6.00722
H          2.39722        0.26416        2.32754
H          1.13525        0.25263        4.17079
H         -0.50516       -0.87966        5.63809
H         -1.37927       -3.13877        5.03068
H         -0.58892       -4.23980        2.93946
H          1.05614       -3.11327        1.46510
H          4.17836        0.67688        0.96372
H          3.02712        0.80209       -0.38121
H          4.11241       -1.45850       -1.19556
H          5.49114       -1.03438       -0.19199
H          6.19933       -1.30818       -2.79905
H          6.37432        0.15711       -4.80114
H          6.64422        2.74524       -3.54808
H          4.40186        3.23417       -4.56431
H          4.18445        1.51732       -4.93860
H          6.43887        4.47653       -5.57474
H          7.90293        4.67620       -7.56741
H          8.03669        2.83038       -9.21609
H          5.18765        0.56952       -6.91812
H          6.17157        0.78085      -10.14284
H          6.15685       -0.44214       -8.85918
H          7.69901        0.20214       -9.47127
H          8.52246       -0.39020       -3.49789
H          8.36112        1.17491       -2.70360
H          8.32534        2.21970       -5.13454
H          8.66619        0.60857       -5.72856
