94

C          1.77721       -8.65828       -1.21972
C          3.30004       -8.73714       -1.08301
C          3.89258       -7.60088       -0.24213
C          5.41237       -7.68953       -0.06915
C          5.99296       -6.58074        0.81422
C          7.49584       -6.72269        1.07435
C          8.03705       -5.68103        2.05819
C          9.50093       -5.91665        2.44888
C          9.94094       -5.00078        3.57573
O         11.26173       -5.38244        4.00398
C         11.67589       -4.70582        5.15667
C         13.20019       -4.92906        5.31586
C         14.00742       -4.40788        4.11595
C         13.66737       -2.99653        3.62725
C         14.49289       -2.62671        2.38706
S         13.78291       -1.25679        1.44128
C         12.46129       -2.09469        0.54391
S         12.28766       -3.75782        0.55417
N         11.64935       -1.24684       -0.12863
C         11.88814        0.20809       -0.18821
C         12.91331        0.65270       -1.24406
C         12.54757        0.32063       -2.69486
C         13.57566        0.85808       -3.69383
C         10.46793       -1.77083       -0.84502
C          9.29320       -2.13230        0.07539
C          8.80022       -1.00180        0.98429
C          7.64384       -1.43564        1.88903
C         13.54406       -6.40312        5.66345
C         13.61440       -6.45883        7.20400
C         13.74414       -5.02593        7.60510
N         13.57323       -4.24399        6.58501
C         13.97435       -4.50479        8.98335
C         13.11409       -3.25004        9.30383
C         13.42155       -2.65792       10.70069
N         14.61004       -1.80267       10.58672
O         13.33469       -2.23082        8.33038
H          1.38305       -9.48482       -1.82649
H          1.46670       -7.71763       -1.69839
H          1.28577       -8.70485       -0.23622
H          3.76274       -8.72810       -2.08447
H          3.57899       -9.70398       -0.63080
H          3.41485       -7.60101        0.75399
H          3.63002       -6.63134       -0.70098
H          5.89935       -7.66727       -1.05956
H          5.66903       -8.67010        0.36974
H          5.46185       -6.57914        1.78273
H          5.78602       -5.59653        0.35788
H          8.05054       -6.66046        0.12240
H          7.69608       -7.73175        1.47564
H          7.41202       -5.69873        2.96891
H          7.91894       -4.67153        1.63066
H         10.16343       -5.77080        1.58198
H          9.62935       -6.95924        2.78267
H          9.24291       -5.08225        4.43166
H          9.96119       -3.94232        3.25202
H         11.15175       -5.08513        6.06171
H         11.46431       -3.61989        5.09467
H         13.80764       -5.10716        3.28928
H         15.07938       -4.49654        4.35968
H         13.82103       -2.23596        4.41151
H         12.60757       -2.96632        3.34161
H         14.56249       -3.48196        1.69840
H         15.50809       -2.29005        2.64396
H         12.20470        0.54753        0.81033
H         10.91584        0.67889       -0.38584
H         13.89700        0.21914       -1.00433
H         13.02789        1.74427       -1.13236
H         11.55261        0.73545       -2.93063
H         12.46407       -0.77177       -2.81379
H         13.65767        1.95325       -3.63434
H         13.30200        0.60084       -4.72571
H         14.57448        0.43982       -3.50122
H         10.78011       -2.66035       -1.40942
H         10.16856       -0.99643       -1.56270
H          9.58438       -3.00059        0.68545
H          8.47101       -2.47573       -0.57439
H          8.48441       -0.13999        0.37194
H          9.63455       -0.64409        1.61024
H          6.78818       -1.79777        1.30020
H          7.28746       -0.60608        2.51474
H          7.94804       -2.25258        2.56051
H         14.51858       -6.66540        5.23087
H         12.79720       -7.08197        5.23919
H         14.44556       -7.06023        7.60078
H         12.70207       -6.86393        7.67654
H         13.54356       -3.22092        6.75524
H         15.04594       -4.25161        9.07491
H         13.77690       -5.30915        9.70670
H         12.05184       -3.53670        9.25299
H         13.51240       -3.45752       11.45300
H         12.56800       -2.03133       10.98962
H         15.46725       -2.27235       10.87390
H         14.52546       -0.95823       11.14804
H         14.04096       -1.67525        8.76136
