69

C          0.61281       -0.12552        0.45565
C          2.14090       -0.18938        0.52144
C          2.76559        0.96372        1.31549
C          4.29334        0.88827        1.40275
C          4.92980        2.05101        2.17179
C          6.45469        1.94432        2.27620
C          7.11574        3.13326        2.98093
C          8.63197        2.97522        3.12961
C          9.32089        4.16957        3.79830
C         10.82330        3.94757        3.99958
C         11.53982        5.13086        4.66167
C         13.02503        4.83584        4.90302
C         13.73811        6.00343        5.59210
N         15.13008        5.65038        5.94350
C         15.60514        5.04691        7.05582
C         14.82524        4.74501        8.27681
N         16.91050        4.76604        6.87223
N         17.25162        5.18036        5.66927
N         16.18463        5.69694        5.09346
C         16.25353        6.41717        3.82497
C         16.38904        7.94139        4.11506
O         15.64826        8.45053        4.95219
N         17.33385        8.57305        3.39392
C         17.56479       10.02132        3.46672
C         17.02663       10.77166        2.24465
C         17.30090       12.27869        2.32660
C         16.79349       13.04247        1.10114
H          0.19872       -0.96227       -0.12358
H          0.27163        0.80706       -0.01829
H          0.16779       -0.16567        1.46119
H          2.55484       -0.18986       -0.50128
H          2.45052       -1.14807        0.97137
H          2.34112        0.97656        2.33507
H          2.47142        1.92399        0.85569
H          4.71530        0.85524        0.38251
H          4.58315       -0.06565        1.87824
H          4.49701        2.10114        3.18659
H          4.66113        3.00354        1.68188
H          6.88248        1.84142        1.26322
H          6.71747        1.01308        2.80857
H          6.66376        3.26689        3.97946
H          6.89416        4.05960        2.42256
H          9.08098        2.80865        2.13448
H          8.84463        2.06100        3.71166
H          8.84755        4.36821        4.77562
H          9.15815        5.07712        3.19152
H         11.29677        3.73360        3.02552
H         10.97515        3.04376        4.61518
H         11.05265        5.36607        5.62357
H         11.43394        6.03230        4.03473
H         13.52410        4.60883        3.94611
H         13.12525        3.93147        5.52504
H         13.25896        6.26680        6.54439
H         13.77854        6.92298        4.99575
H         13.97227        4.08835        8.05640
H         14.43919        5.66711        8.73474
H         15.48407        4.24281        8.99251
H         15.33634        6.23044        3.25174
H         17.10522        5.97547        3.29456
H         17.88848        8.03677        2.73332
H         18.64831       10.17966        3.57634
H         17.08043       10.36946        4.38825
H         15.94224       10.59056        2.16254
H         17.48551       10.36105        1.32859
H         18.38460       12.44624        2.44383
H         16.82986       12.68312        3.23762
H         17.28791       12.69813        0.18116
H         16.98706       14.11846        1.19824
H         15.71023       12.91052        0.96599
