49

C          3.47509       -0.60970        2.50981
C          3.44756       -0.23433        1.02645
C          4.42500        0.89464        0.67369
C          4.39835        1.24779       -0.81789
C          5.20575        2.50157       -1.21993
P          6.99692        2.49608       -0.86112
C          7.91090        1.55966       -2.16560
C          9.40705        1.91070       -2.15627
O          9.86695        1.81698       -0.80614
C          7.66482        0.04955       -1.97980
C          7.64539        4.19840       -0.70331
C          6.99653        4.76406        0.57031
O          6.26242        3.99783        1.21962
N          7.24691        6.03962        0.92842
C          8.12942        6.94542        0.17959
C          7.38956        7.93086       -0.72732
C          6.58097        6.55084        2.14824
C          5.11581        6.93696        1.94251
H          2.76300       -1.41621        2.72767
H          3.20945        0.24770        3.14520
H          4.47222       -0.95583        2.81951
H          2.42698        0.07019        0.74053
H          3.68046       -1.12305        0.41588
H          5.44078        0.58837        0.97948
H          4.19152        1.79179        1.27022
H          3.36002        1.45580       -1.12149
H          4.70834        0.38005       -1.41961
H          4.82074        3.37974       -0.68402
H          5.11968        2.69659       -2.30088
H          7.26429        1.83762        0.35052
H          7.49055        1.89331       -3.12907
H          9.57040        2.92550       -2.56291
H          9.93429        1.19954       -2.81361
H         10.83491        1.76380       -0.79230
H          8.06461       -0.30314       -1.01994
H          8.17620       -0.49974       -2.78136
H          6.60216       -0.21391       -2.03162
H          7.41032        4.77076       -1.61265
H          8.73928        4.12392       -0.61525
H          8.83594        6.34303       -0.40575
H          8.73525        7.48893        0.91941
H          6.75891        7.40721       -1.45927
H          8.11305        8.54737       -1.27712
H          6.74727        8.60723       -0.14971
H          7.16966        7.41472        2.48429
H          6.65855        5.76972        2.91625
H          4.99918        7.71539        1.17800
H          4.70599        7.32633        2.88410
H          4.51604        6.06543        1.65290
