46

C          1.01305       -0.18869        0.26728
C          2.53922       -0.10431        0.18800
C          3.03937        0.99469       -0.75581
C          4.56682        1.07714       -0.84440
C          5.06854        2.15512       -1.81069
C          6.59722        2.23643       -1.89038
C          7.09626        3.30028       -2.87380
C          8.62597        3.37630       -2.95385
C          9.10632        4.42877       -3.96781
C         10.63392        4.47172       -4.02181
S         11.24934        5.79904       -5.12202
C         13.06556        5.59382       -5.04857
C         13.80025        6.58932       -5.94965
C         15.31815        6.47160       -5.75842
C         10.83130        5.19000       -6.76837
H          0.68952       -0.98998        0.94520
H          0.57191       -0.39132       -0.72007
H          0.57849        0.75257        0.63540
H          2.94523       -1.07563       -0.14186
H          2.95231        0.06768        1.19635
H          2.63852        1.96958       -0.42633
H          2.62348        0.82415       -1.76465
H          4.96703        0.09601       -1.15505
H          4.98107        1.26692        0.16128
H          4.66588        3.13691       -1.50620
H          4.66079        1.96036       -2.81808
H          7.00055        1.25139       -2.18316
H          7.00542        2.44536       -0.88631
H          6.69735        4.28733       -2.58321
H          6.68900        3.08944       -3.87790
H          9.03077        2.38835       -3.23241
H          9.03882        3.61148       -1.95844
H          8.71391        5.42016       -3.69082
H          8.69471        4.18340       -4.95932
H         11.07807        3.52428       -4.36212
H         11.06299        4.73180       -3.04182
H         13.29537        4.54551       -5.29184
H         13.29919        5.76779       -3.98654
H         13.46953        7.61309       -5.71671
H         13.55025        6.40113       -7.00454
H         15.61241        6.69683       -4.72425
H         15.83435        7.18218       -6.41541
H         15.68023        5.46422       -6.00601
H          9.73860        5.19849       -6.84914
H         11.23181        4.18084       -6.92124
H         11.24886        5.89655       -7.49459
