82

O          2.84694       -1.15115        5.93196
C          4.21696       -1.29130        5.57480
C          4.38936       -0.52242        4.27291
O          5.80700       -0.50452        3.97347
C          6.13778       -0.16351        2.68698
O          6.05904        1.29075        2.42439
C          6.64523        2.08867        3.36272
S          8.56317        2.10870        3.13124
C          8.72538        2.82744        1.46936
C          8.40960        4.32183        1.38684
O          7.52702        4.86001        2.02811
O          9.23784        4.89770        0.51791
C          9.09535        6.35277        0.31449
C          9.99612        7.11206        1.27581
C          9.98760        8.61881        0.98464
C         10.88601        9.41728        1.93715
C         10.90708       10.91465        1.62101
C          9.09893        3.39813        4.31303
C         10.58306        3.73160        4.15452
C         11.06140        4.66784        5.27594
C         12.57439        4.91003        5.22290
C         13.09055        5.77989        6.37449
C         14.61924        5.87790        6.41812
C         15.14905        6.71136        7.58971
C         16.67626        6.68937        7.71202
C         17.20964        7.50792        8.89235
C         18.73060        7.42551        9.05958
C         19.26144        8.22893       10.25143
C         20.77907        8.12699       10.43526
C         21.30843        8.92335       11.63323
C         22.82437        8.81201       11.81504
H          2.65186       -1.74957        6.66848
H          4.50231       -2.34674        5.42323
H          4.88927       -0.86265        6.34147
H          4.00403        0.50382        4.38640
H          3.84374       -1.01164        3.44949
H          5.46042       -0.57850        1.92535
H          7.17737       -0.48642        2.52090
H          6.54391        1.73307        4.40045
H          6.33594        3.13025        3.21977
H          8.00446        2.25713        0.86123
H          9.73697        2.59745        1.11671
H          8.03736        6.61591        0.43871
H          9.39475        6.49562       -0.73053
H         11.02308        6.72117        1.18937
H          9.66250        6.93007        2.31083
H          8.95517        9.00256        1.04925
H         10.31440        8.79171       -0.05485
H         11.91159        9.01414        1.89023
H         10.54318        9.26131        2.97412
H         11.28731       11.10298        0.60645
H         11.54929       11.46238        2.32311
H          9.89939       11.35101        1.68257
H          8.89667        2.92661        5.28767
H          8.44064        4.26767        4.18572
H         10.76375        4.20781        3.17756
H         11.17695        2.80356        4.17489
H         10.79987        4.22723        6.25302
H         10.52074        5.62727        5.21405
H         12.84278        5.37276        4.25743
H         13.09224        3.93541        5.24790
H         12.73104        5.36247        7.33142
H         12.65238        6.79031        6.30147
H         14.99096        6.29927        5.46782
H         15.04045        4.85898        6.48098
H         14.70745        6.33578        8.52968
H         14.80018        7.75389        7.48866
H         17.12693        7.06010        6.77462
H         17.01386        5.64280        7.81455
H         16.72407        7.16214        9.82196
H         16.91017        8.56384        8.77131
H         19.22111        7.77611        8.13449
H         19.02583        6.36751        9.17377
H         18.75962        7.88558       11.17328
H         18.97826        9.28964       10.13224
H         21.28351        8.47396        9.51611
H         21.06222        7.06553       10.55073
H         20.80073        8.57777       12.54970
H         21.02751        9.98384       11.51559
H         23.13210        7.76809       11.97732
H         23.17123        9.39718       12.67784
H         23.36123        9.17962       10.92788
