43

C          0.73085        0.27682       -0.20455
C          2.25347        0.18382       -0.08114
C          2.81345       -1.17942       -0.50374
C          4.33764       -1.27295       -0.38646
C          4.91663       -2.59984       -0.88952
C          6.44310       -2.65659       -0.77435
C          7.05248       -3.93805       -1.35769
C          8.56630       -3.95413       -1.27805
C          9.26102       -5.16035       -1.92154
N         10.60446       -5.19409       -1.21803
C         10.37021       -4.28696        0.08157
O          9.00295       -4.09040        0.09399
C         10.84232       -4.95626        1.34845
C         11.75811       -4.76342       -2.08550
C         13.08897       -4.94487       -1.37555
F         13.14781       -6.26309       -0.90190
H          0.36376        1.26788        0.09416
H          0.23105       -0.46796        0.43243
H          0.40239        0.09991       -1.23959
H          2.55436        0.39439        0.95932
H          2.72253        0.97155       -0.69515
H          2.51378       -1.38644       -1.54649
H          2.34752       -1.97277        0.10680
H          4.63510       -1.11866        0.66568
H          4.79617       -0.44354       -0.95375
H          4.62145       -2.75053       -1.94279
H          4.47178       -3.43801       -0.32587
H          6.73764       -2.56093        0.28297
H          6.87782       -1.78581       -1.29578
H          6.76924       -4.03716       -2.41934
H          6.66174       -4.83067       -0.84155
H          8.98092       -3.01317       -1.69298
H          9.40983       -5.07853       -3.00338
H          8.72605       -6.08870       -1.68759
H         10.81575       -6.14837       -0.89549
H         10.92313       -3.35841       -0.15793
H         10.29661       -5.89424        1.51967
H         10.63254       -4.28579        2.19156
H         11.91985       -5.15831        1.33485
H         11.60159       -3.71570       -2.37658
H         11.72673       -5.39105       -2.98604
H         13.22320       -4.27091       -0.51675
H         13.91261       -4.78655       -2.08610
