69

C          0.74240        3.28390        1.34277
C          2.27328        3.29512        1.33304
C          2.86521        3.31299       -0.08102
C          4.39724        3.33384       -0.11242
C          4.97076        3.34705       -1.53372
C          6.50271        3.39273       -1.58050
C          7.05396        3.40557       -3.01113
C          8.58314        3.48487       -3.06654
C          9.10552        3.50513       -4.52817
C         10.59736        3.61032       -4.57445
C         11.25224        4.84843       -4.53384
C         12.64053        4.92369       -4.49622
C         13.39085        6.21894       -4.42955
C         13.12782        7.01113       -3.12465
C         13.50714        6.25803       -1.84614
C         13.31098        7.09892       -0.57904
C         13.62966        6.33493        0.70825
C         13.31523        3.68030       -4.50540
N         12.70934        2.50637       -4.56062
N         11.37677        2.49626       -4.58972
C         10.79223        1.09053       -4.69886
O         10.13313        0.88969       -5.88809
C         10.98175        0.67425       -7.05184
C         10.08226        0.31367       -8.21975
C         10.86700        0.05438       -9.51305
C          9.95508       -0.30181      -10.69044
H          0.34610        3.26956        2.36703
H          0.34583        2.40008        0.82133
H          0.33325        4.17358        0.84135
H          2.65306        2.41252        1.87501
H          2.63984        4.17300        1.89164
H          2.47833        4.19284       -0.62495
H          2.50087        2.43164       -0.63786
H          4.78774        2.45647        0.43237
H          4.76232        4.21885        0.43780
H          4.56573        4.21570       -2.08161
H          4.61615        2.45465       -2.07828
H          6.91383        2.52546       -1.03516
H          6.85854        4.28822       -1.04190
H          6.62683        4.26137       -3.56145
H          6.71626        2.50098       -3.54502
H          9.02353        2.62985       -2.52635
H          8.93388        4.38961       -2.54336
H          8.69214        4.38443       -5.04350
H          8.75837        2.62053       -5.07589
H         10.63902        5.75075       -4.52631
H         13.09355        6.84004       -5.29017
H         14.46733        6.02011       -4.53444
H         12.06689        7.30964       -3.08325
H         13.70062        7.94834       -3.19353
H         14.55973        5.92990       -1.90922
H         12.90639        5.33421       -1.76090
H         12.27091        7.46504       -0.54473
H         13.94509        7.99848       -0.64338
H         12.97434        5.45930        0.82807
H         13.49461        6.97221        1.59184
H         14.66914        5.97565        0.71514
H         14.40510        3.62511       -4.47670
H         10.07131        0.97599       -3.87951
H         11.66911        0.44284       -4.54776
H         11.69733       -0.13411       -6.81977
H         11.55654        1.59372       -7.26285
H          9.35934        1.13089       -8.37772
H          9.49499       -0.57869       -7.95053
H         11.59044       -0.76104       -9.34713
H         11.46447        0.94633       -9.76703
H          9.37415       -1.21251      -10.48473
H         10.53800       -0.47891      -11.60365
H          9.24088        0.50728      -10.90283
