46

C          5.80524        3.74421        2.92198
C          6.08786        2.35773        2.33468
C          4.89529        1.42617        2.50439
O          5.15327        0.12654        1.87163
C          5.74127       -0.80691        2.62821
O          6.04269       -0.69491        3.80358
C          6.00292       -2.07171        1.81871
C          6.84527       -3.04410        2.63129
N          7.27850       -4.21470        1.85194
C          7.34694       -5.31489        2.61782
N          7.88414       -6.48396        2.26290
N          6.80973       -5.07916        3.83218
C          6.13584       -3.74865        3.83897
C          4.68852       -3.89632        3.72437
C          3.49036       -4.03749        3.64802
C          6.80601       -5.96757        4.98852
C          6.06470       -7.29596        4.78991
O          6.18138       -7.97904        3.77895
O          5.35879       -7.61553        5.86363
C          4.71360       -8.94539        5.88029
C          5.66562      -10.01033        6.40454
C          4.96102      -11.36620        6.52654
H          6.66932        4.40594        2.78356
H          5.59716        3.69033        3.99996
H          4.94187        4.22071        2.43603
H          6.96472        1.91291        2.82970
H          6.32574        2.43950        1.26288
H          4.00698        1.80157        1.98090
H          4.65633        1.25645        3.56267
H          6.52744       -1.79144        0.89260
H          5.04444       -2.52220        1.52053
H          7.72787       -2.51719        3.02825
H          7.64081       -4.16526        0.90731
H          8.29927       -6.58191        1.34366
H          7.45027       -7.31448        2.70534
H          6.38483       -3.20624        4.76116
H          2.42755       -4.15550        3.58188
H          6.36924       -5.41965        5.82974
H          7.84534       -6.22173        5.26046
H          4.36237       -9.16685        4.86415
H          3.85488       -8.79879        6.54631
H          6.05224       -9.69351        7.38501
H          6.52719      -10.09632        5.72497
H          4.11028      -11.31917        7.22082
H          5.65563      -12.12621        6.90510
H          4.58499      -11.71545        5.55452
