55

C          0.74473       -0.36027        0.81665
C          2.27176       -0.29922        0.73139
C          2.87482       -1.50598        0.00045
C          4.40840       -1.43454       -0.08883
C          4.96986       -2.67882       -0.77748
S          6.76871       -2.55130       -1.10113
C          7.46619       -2.66155        0.57813
C          8.99228       -2.59154        0.60107
C          9.42544       -2.80854        2.07215
O          8.72372       -3.48159        2.82314
N         10.60569       -2.21296        2.40128
C         11.30689       -2.22321        3.63647
C         10.83297       -2.87402        4.78584
C         11.59237       -2.81525        5.95640
C         12.80547       -2.12494        5.99730
C         13.27074       -1.48062        4.84735
C         12.52642       -1.52780        3.67125
C          7.16753       -4.18133       -1.84315
C          6.61534       -4.31783       -3.27141
C          7.04211       -5.65389       -3.84672
C          6.27393       -6.80334       -3.61045
C          6.67796       -8.04043       -4.11596
C          7.85539       -8.13937       -4.86260
C          8.62567       -6.99852       -5.10361
C          8.22231       -5.76172       -4.59575
H          0.34470        0.51336        1.34719
H          0.40863       -1.25805        1.35555
H          0.28723       -0.37996       -0.18296
H          2.69786       -0.24158        1.74682
H          2.57863        0.62682        0.21734
H          2.45222       -1.57131       -1.01664
H          2.57945       -2.43417        0.51890
H          4.82303       -1.33931        0.92661
H          4.70581       -0.53143       -0.64592
H          4.53277       -2.80386       -1.77918
H          4.80350       -3.60064       -0.20049
H          7.10785       -3.58189        1.05961
H          7.03064       -1.80222        1.10690
H          9.35659       -1.63483        0.19956
H          9.44113       -3.39983        0.00225
H         11.06471       -1.68319        1.66551
H          9.88976       -3.41176        4.75848
H         11.22194       -3.31961        6.84934
H         13.38563       -2.08799        6.91914
H         14.21604       -0.93795        4.86425
H         12.89262       -1.02292        2.77353
H          6.78869       -4.96109       -1.16679
H          8.26598       -4.22145       -1.84954
H          6.99150       -3.49453       -3.89659
H          5.51750       -4.25384       -3.26613
H          5.34417       -6.72986       -3.04074
H          6.06854       -8.92622       -3.93498
H          8.16798       -9.10360       -5.26400
H          9.53808       -7.06960       -5.69630
H          8.82108       -4.87086       -4.80016
