58

C          0.53118       -0.43176        3.82926
C          1.97935       -0.66229        4.26764
C          2.82362       -1.38399        3.21161
C          4.27104       -1.63221        3.64654
C          5.10104       -2.38025        2.59835
C          6.54403       -2.65036        3.04047
C          7.31302       -3.46110        2.00020
O          8.70274       -3.66136        2.30857
C          8.94715       -4.56176        3.36538
N         10.24265       -5.15933        3.13035
C         10.33759       -6.08068        2.01341
C          9.96358       -7.50394        2.42746
N         10.79082       -7.93777        3.61321
C         10.86274       -6.96543        4.80431
C         11.08529       -5.53116        4.23956
C         12.10646       -7.39823        5.63543
C         13.29058       -7.59380        4.81012
C         14.22277       -7.79941        4.06481
C          9.55867       -7.07986        5.61667
C          9.23834       -8.46342        6.21615
C          7.84760       -8.51363        6.85090
O          6.92267       -8.51487        5.75285
O          9.31384       -9.49996        5.20430
H         -0.04865        0.08136        4.60832
H          0.02355       -1.38284        3.60940
H          0.48268        0.18520        2.91972
H          1.99298       -1.24758        5.20308
H          2.45091        0.30486        4.51061
H          2.81844       -0.79660        2.27662
H          2.34702       -2.34888        2.96247
H          4.27446       -2.20681        4.59001
H          4.75647       -0.66841        3.87831
H          5.10931       -1.80366        1.65740
H          4.60473       -3.33800        2.36087
H          6.53158       -3.18770        4.00486
H          7.07531       -1.70075        3.21469
H          7.31919       -2.93845        1.03329
H          6.82815       -4.44702        1.84804
H          8.10546       -5.29744        3.40088
H          8.99165       -4.05674        4.34918
H         11.36548       -6.06156        1.61116
H          9.67548       -5.73799        1.20791
H         10.14499       -8.23892        1.63151
H          8.90964       -7.57397        2.72679
H         11.76991       -8.11601        3.32266
H         10.37081       -8.81638        4.01534
H         12.13945       -5.46061        3.91732
H         10.95087       -4.81463        5.06268
H         11.90498       -8.32824        6.18968
H         12.29114       -6.62006        6.39380
H         15.08373       -7.96180        3.44756
H          8.70850       -6.75582        4.99848
H          9.62772       -6.35412        6.44193
H          9.97626       -8.73200        6.98678
H          7.69240       -7.64429        7.51167
H          7.75139       -9.43517        7.44689
H          6.04829       -8.79004        6.06794
H          8.38969       -9.61566        4.89578
