47

C          0.71675        0.07734        0.07799
C          2.24036       -0.02622       -0.01858
C          2.88457       -0.64306        1.22750
C          4.41392       -0.70519        1.16204
C          5.04926       -1.32810        2.40950
C          6.58117       -1.31453        2.38349
C          7.20410       -1.95623        3.62916
C          8.73941       -1.86122        3.63668
C          9.31824       -2.52618        4.87423
N         10.86998       -2.47389        4.88951
C         11.43600       -3.50641        5.73401
N         11.93107       -3.36687        6.91274
N         12.29164       -4.65238        7.31748
C         11.97679       -5.46039        6.32889
O         11.40474       -4.77179        5.25275
S         12.15521       -7.15836        6.14427
C         12.98073       -7.57069        7.73811
C         13.23082       -9.07586        7.75263
C         11.41486       -1.11298        5.26719
H          0.28495        0.51373       -0.83247
H          0.41263        0.70973        0.92514
H          0.25621       -0.91119        0.22258
H          2.66779        0.97650       -0.18867
H          2.51528       -0.62503       -0.90316
H          2.48160       -1.65963        1.38116
H          2.58359       -0.06252        2.11739
H          4.81296        0.31454        1.01960
H          4.72173       -1.27760        0.26953
H          4.69238       -2.36645        2.52318
H          4.69868       -0.78703        3.30567
H          6.93464       -0.27274        2.29362
H          6.94218       -1.83899        1.48199
H          6.90024       -3.01457        3.69124
H          6.80654       -1.46578        4.53341
H          9.03059       -0.80017        3.58614
H          9.14062       -2.35266        2.73235
H          9.06403       -3.59352        4.91089
H          9.00467       -2.05487        5.81505
H         11.16637       -2.67454        3.92015
H         12.31766       -7.24885        8.55037
H         13.91184       -6.99265        7.78571
H         12.29458       -9.64743        7.70279
H         13.73572       -9.34037        8.69105
H         13.87897       -9.39177        6.92412
H         10.94123       -0.36963        4.62122
H         12.49970       -1.12193        5.12435
H         11.18004       -0.93569        6.32040
