87

C          0.50924       -0.14905        0.14044
C          2.03832       -0.07618        0.13933
C          2.62148        0.42372       -1.18686
C          4.15228        0.48101       -1.20504
C          4.73361        0.96824       -2.53598
C          6.26502        1.00014       -2.56399
C          6.84541        1.48479       -3.89633
C          8.37703        1.48943       -3.93467
C          8.95431        1.96019       -5.27301
C         10.48545        1.95274       -5.32192
C         11.05382        2.43600       -6.65980
C         12.58466        2.46610       -6.70448
C         13.14354        2.95886       -8.04291
C         14.67259        3.05091       -8.07202
C         15.21874        3.56591       -9.40816
C         16.74392        3.71629       -9.42368
C         17.26428        4.26228      -10.75619
C         18.80247        4.47521      -10.74963
C         19.26593        5.00737      -12.06432
C         19.58923        4.14488      -13.13856
N         19.93864        4.55762      -14.34237
N         20.00793        5.87237      -14.57725
C         19.72329        6.82190      -13.63341
C         19.33422        6.36097      -12.36018
C         19.73647        8.27208      -13.84453
C         20.39288        9.04496      -14.72632
C         20.41928        6.17028      -15.97238
C         21.94374        6.27126      -16.14767
C         22.71299        4.95228      -16.01698
C         24.21016        5.12591      -16.30239
C         25.00802        3.82213      -16.18623
C         26.49755        4.00156      -16.48874
H          0.12241       -0.51098        1.10319
H          0.14134       -0.82974       -0.64193
H          0.06170        0.83870       -0.04637
H          2.45484       -1.07263        0.36497
H          2.37731        0.58318        0.95642
H          2.21462        1.42640       -1.40871
H          2.27179       -0.22941       -2.00621
H          4.55611       -0.52133       -0.97689
H          4.50344        1.13864       -0.39023
H          4.34258        1.97693       -2.75807
H          4.36900        0.31883       -3.35152
H          6.65364       -0.00999       -2.34420
H          6.63274        1.64733       -1.74818
H          6.47148        2.50186       -4.10949
H          6.46340        0.84719       -4.71318
H          8.74964        0.47359       -3.71383
H          8.76153        2.13339       -3.12407
H          8.58895        2.97973       -5.48932
H          8.56100        1.32211       -6.08406
H         10.85370        0.93254       -5.11472
H         10.88007        2.58616       -4.50791
H         10.66552        3.44733       -6.87487
H         10.67604        1.79018       -7.47200
H         12.97938        1.45723       -6.49135
H         12.95952        3.11422       -5.89279
H         12.71715        3.95177       -8.27091
H         12.80041        2.29061       -8.85209
H         15.10708        2.05982       -7.85440
H         15.01250        3.71594       -7.25901
H         14.75570        4.54179       -9.63659
H         14.90765        2.88481      -10.21915
H         17.21734        2.74182       -9.21539
H         17.05529        4.38919       -8.60645
H         16.77374        5.22283      -10.98632
H         16.99679        3.57519      -11.57631
H         19.30209        3.51773      -10.53765
H         19.07147        5.17469       -9.94465
H         19.55869        3.05892      -13.02874
H         19.09062        7.10759      -11.60341
H         19.12919        8.78279      -13.09263
H         21.08046        8.67748      -15.48377
H         20.26751       10.12604      -14.67468
H         19.91002        7.09530      -16.26760
H         20.01658        5.34067      -16.56460
H         22.35812        7.01102      -15.44328
H         22.09996        6.69045      -17.15552
H         22.28567        4.20893      -16.71046
H         22.58351        4.53183      -15.00590
H         24.63234        5.87484      -15.60928
H         24.34167        5.54432      -17.31548
H         24.57918        3.07270      -16.87229
H         24.88374        3.40916      -15.17073
H         26.65597        4.37800      -17.50987
H         27.04016        3.05140      -16.39900
H         26.96478        4.71694      -15.79604
