83

C         -1.21574       13.28246       -1.07777
C          0.27902       13.60903       -1.03159
C          1.16628       12.44174       -1.47749
C          2.66705       12.74779       -1.43919
C          3.53626       11.55822       -1.85906
C          5.04323       11.83247       -1.81603
C          5.88487       10.60127       -2.16787
C          7.39838       10.82989       -2.09403
C          8.20945        9.55370       -2.34263
C          9.72466        9.73701       -2.19993
C         10.49603        8.41518       -2.31248
C         12.01295        8.49689       -2.07455
C         12.39217        9.00605       -0.67520
C         13.84209        8.73658       -0.24959
C         14.94922        9.35764       -1.10849
N         14.94007       10.84048       -1.19591
C         14.77946       11.64135       -0.11732
N         14.17640       12.84835       -0.14220
N         14.15303       13.45246        1.07725
C         14.73590       12.59054        1.86528
N         15.15957       11.45860        1.18900
C         16.12346       10.49070        1.73405
C         17.57890       10.84272        1.38245
C         18.11174       12.09010        2.12403
N         19.56930       12.02726        2.11780
C         20.23265       12.84606        3.14172
C         21.73981       12.72808        2.99921
O         22.07157       13.20336        1.68759
O         18.33805        9.71443        1.74596
C         15.31268       11.46552       -2.47869
C         14.21423       12.08504       -3.32814
O         13.43650       13.15746       -2.73509
C         12.77128       11.92030       -3.11390
H         -1.82646       14.13504       -0.75040
H         -1.45863       12.43068       -0.42483
H         -1.53556       13.01693       -2.09650
H          0.56009       13.90734       -0.00716
H          0.48515       14.48644       -1.66789
H          0.88197       12.13965       -2.50109
H          0.95843       11.56495       -0.83852
H          2.94944       13.06380       -0.41920
H          2.88244       13.61142       -2.09288
H          3.25289       11.24076       -2.87795
H          3.30896       10.69839       -1.20414
H          5.32078       12.18604       -0.80703
H          5.28856       12.66019       -2.50452
H          5.61690       10.25060       -3.17977
H          5.61457        9.77699       -1.48447
H          7.65536       11.23256       -1.09777
H          7.69222       11.60821       -2.82038
H          7.98004        9.15705       -3.34659
H          7.87870        8.77714       -1.63101
H          9.92698       10.21368       -1.22488
H         10.07999       10.44582       -2.96929
H         10.31807        7.97736       -3.30772
H         10.07115        7.69669       -1.59034
H         12.47785        9.12169       -2.85739
H         12.43927        7.48858       -2.21051
H         11.74157        8.51249        0.06450
H         12.16710       10.08115       -0.57423
H         14.03271        7.65102       -0.26985
H         13.95971        9.02832        0.80534
H         14.83679        9.01448       -2.14496
H         15.93892        9.00461       -0.77107
H         13.75934       13.26015       -1.00438
H         14.88199       12.72714        2.93192
H         15.89872        9.48749        1.35973
H         15.98680       10.47064        2.82346
H         17.63784       11.01984        0.28379
H         17.78496       12.04205        3.17677
H         17.69537       13.02076        1.68895
H         19.94907       12.29930        1.20713
H         19.93323       12.48200        4.13626
H         19.94663       13.91408        3.07218
H         22.04619       11.67470        3.12450
H         22.22817       13.33454        3.78128
H         23.02265       13.08969        1.54285
H         19.20683       10.10998        2.01615
H         15.80338       10.68740       -3.07971
H         16.07664       12.23865       -2.29200
H         14.55740       12.32548       -4.34086
H         12.08535       12.01785       -3.95788
H         12.41290       11.32406       -2.27407
