70

C          1.85814        1.14233        0.07958
C          3.23714        0.47836        0.18501
C          3.33428       -0.48952        1.37983
C          3.30857        0.16688        2.77179
C          3.65683       -0.82357        3.84644
C          2.88152       -1.27856        4.84783
C          1.46246       -0.84229        5.09995
C          3.41694       -2.28552        5.83257
C          3.58783       -0.23942       -1.13493
C          5.07700       -0.58743       -1.22136
N          5.43956       -1.43904       -2.37107
C          5.52026       -2.94252       -2.21309
C          4.49076       -3.56758       -3.16411
C          4.86581       -3.22103       -4.59809
N          5.32182       -1.82871       -4.67063
C          5.41063       -0.97022       -3.63083
N          5.44560        0.34649       -3.93966
C          6.21514        1.41385       -3.33057
C          6.46539        2.45327       -4.45335
O          6.01814        2.20228       -5.57053
C          7.19521        3.69454       -4.13788
C          7.34736        4.65418       -5.15895
C          8.02281        5.84254       -4.90416
C          8.55622        6.08696       -3.63277
C          8.41266        5.13997       -2.61327
C          7.73353        3.94927       -2.86173
C          5.40519       -3.38093       -0.76780
C          6.56418       -3.41636        0.02339
C          6.49539       -3.77362        1.37065
C          5.26569       -4.11356        1.94210
C          4.11115       -4.10701        1.15715
C          4.17987       -3.74286       -0.18903
H          1.60209        1.69190        0.99439
H          1.07153        0.39003       -0.08644
H          1.82001        1.85644       -0.75512
H          3.98558        1.28062        0.33941
H          4.26478       -1.07484        1.31269
H          2.51757       -1.22895        1.31401
H          2.33112        0.63140        2.96141
H          4.04647        0.99025        2.78568
H          4.67367       -1.22988        3.77924
H          1.07828       -0.14533        4.34654
H          1.37758       -0.35345        6.08410
H          0.78872       -1.71355        5.13082
H          4.44976       -2.57626        5.59944
H          2.79517       -3.19597        5.84893
H          3.39856       -1.88286        6.85825
H          3.30718        0.39537       -1.99091
H          2.98780       -1.16038       -1.21948
H          5.39680       -1.13697       -0.33213
H          5.68239        0.32616       -1.23777
H          6.52972       -3.22313       -2.55960
H          3.48708       -3.18770       -2.92619
H          4.47161       -4.65807       -3.04531
H          4.00978       -3.35459       -5.27591
H          5.67948       -3.87164       -4.95376
H          5.53983       -1.45161       -5.58697
H          5.27166        0.59979       -4.92561
H          7.17578        1.05613       -2.92835
H          5.66700        1.91264       -2.51414
H          6.92555        4.44581       -6.14191
H          8.13601        6.58416       -5.69506
H          9.08639        7.01956       -3.43642
H          8.82938        5.33325       -1.62496
H          7.62941        3.22277       -2.05475
H          7.52745       -3.15399       -0.42041
H          7.40344       -3.79303        1.97368
H          5.20871       -4.38825        2.99560
H          3.15048       -4.37636        1.59610
H          3.26361       -3.73524       -0.78008
