68

C          1.66854       -1.37383       -2.11825
C          2.75759       -0.84973       -1.17921
C          3.71021        0.14796       -1.84892
C          4.79208        0.67753       -0.90263
C          5.71129        1.72620       -1.54067
C          6.75500        2.26013       -0.54962
C          7.59965        3.38311       -1.15474
S          8.77961        3.94110        0.14084
C          9.30433        5.43431       -0.52714
N          9.07176        6.00770       -1.68677
N          9.72763        7.23932       -1.65761
C         10.29995        7.30011       -0.50618
O         10.10863        6.22835        0.29629
N         11.07570        8.38984        0.04265
C         10.86572        9.65777       -0.75173
C          9.86476       10.46855        0.07978
O          9.57153       10.08651        1.20910
O          9.42055       11.52446       -0.55757
C          8.43474       12.38818        0.14489
C          9.12414       13.49499        0.92099
C          8.09107       14.41451        1.59037
C          8.73180       15.56184        2.38062
C          7.70026       16.45292        3.07613
C         12.53720        8.01038        0.32397
C         13.17827        8.94468        1.34023
C         14.57176        8.43882        1.74787
C         15.24297        9.32902        2.80185
C         16.61365        8.80369        3.23474
H          1.00046       -2.07736       -1.60351
H          2.10282       -1.89986       -2.98125
H          1.04873       -0.55325       -2.50909
H          3.34067       -1.69661       -0.77972
H          2.28905       -0.36749       -0.30444
H          3.12636        0.99605       -2.24832
H          4.18640       -0.32935       -2.72322
H          5.40065       -0.16561       -0.53231
H          4.31060        1.11732       -0.01164
H          5.10211        2.56542       -1.91808
H          6.21934        1.29458       -2.41950
H          7.40730        1.43429       -0.22057
H          6.24358        2.63605        0.35134
H          6.98993        4.25014       -1.44076
H          8.17874        3.05220       -2.02656
H         10.60833        8.67321        0.96073
H         10.48099        9.40944       -1.74706
H         11.81945       10.19049       -0.83966
H          7.82781       11.74143        0.79113
H          7.82092       12.77608       -0.67630
H          9.76174       14.07711        0.23734
H          9.78004       13.05444        1.68894
H          7.45366       13.81866        2.26603
H          7.41707       14.83266        0.82321
H          9.34984       16.16959        1.69940
H          9.42446       15.14304        3.12977
H          7.01300       16.91279        2.35111
H          8.18687       17.26546        3.63168
H          7.09318       15.87923        3.79154
H         13.04876        7.99964       -0.64803
H         12.49868        6.98303        0.70870
H         12.53523        9.00537        2.23524
H         13.26224        9.96803        0.93912
H         15.21758        8.37279        0.85581
H         14.48316        7.41148        2.14083
H         14.58233        9.40858        3.68128
H         15.34588       10.35186        2.40269
H         16.53792        7.79569        3.66784
H         17.06431        9.45608        3.99354
H         17.31092        8.75063        2.38629
