26

O          4.08872        1.67859        1.02792
C          4.19800        0.79150       -0.10277
C          2.98782        1.00459       -1.04062
C          2.38155        2.39896       -0.86238
O          1.53405        2.77423       -1.90906
C          1.14133        4.11070       -1.66725
C          2.31963        4.75968       -0.89003
N          3.32795        3.63541       -0.77768
C          4.40830        3.72969       -1.81077
I         -0.72208        4.25696       -0.53001
C          3.30952        0.58609       -2.48072
H          4.64276        1.34928        1.75212
H          4.22130       -0.25835        0.22310
H          5.13884        0.98796       -0.64750
H          2.17201        0.35551       -0.68134
H          1.85668        2.44731        0.10822
H          0.91674        4.57616       -2.62927
H          2.03596        5.07731        0.11803
H          2.76379        5.60273       -1.42992
H          3.75755        3.58082        0.16095
H          3.95934        3.64404       -2.80537
H          5.13691        2.93095       -1.65141
H          4.90110        4.70186       -1.70294
H          4.15238        1.14155       -2.91165
H          2.44009        0.71333       -3.13516
H          3.58214       -0.47729       -2.49557
