91

C         12.63362        9.74486       15.82625
C         13.03745       10.03330       14.37901
C         13.55311        8.79338       13.64228
C         13.95113        9.07053       12.18805
C         14.45730        7.81521       11.46524
C         14.80652        8.10484       10.01951
O         15.25844        6.84104        9.40277
C         15.39434        6.82819        8.08169
O         15.17707        7.77059        7.33429
C         15.87768        5.44570        7.63085
C         15.75506        5.21187        6.16315
N         15.45188        6.13279        5.24604
C         15.36939        5.58148        3.97288
C         15.64949        4.25325        4.12668
N         15.89482        4.03254        5.48571
C         16.26545        2.76906        6.10081
O         16.48664        2.68464        7.28334
O         16.30153        1.83279        5.16680
C         16.70390        0.47738        5.62061
C         18.20977        0.33232        5.61748
C         15.06435        6.40126        2.75866
C         14.12073        7.57981        3.01617
O         14.76788        8.45179        3.94388
C         14.27103        9.79966        3.98369
C         13.22621       10.01087        5.08101
O         12.87191       11.38305        4.98266
C         12.14368       11.95962        6.00204
C         11.61703       11.26787        7.09868
C         10.90858       11.97198        8.07879
C         10.70200       13.35846        8.00788
C         11.22170       14.01595        6.87911
C         11.93328       13.33828        5.89207
C          9.90306       14.09088        9.10225
C         10.49513       13.83673       10.52756
C         11.84651       14.43194       11.03016
C         11.72640       15.92278       11.40797
C         12.19622       13.65873       12.32009
C         13.00308       14.24967       10.03183
C          9.75272       15.59127        8.79676
C          8.47151       13.49287        9.11798
H         12.26772       10.65050       16.32805
H         13.48377        9.36156       16.40927
H         11.83301        8.99208       15.87379
H         13.81450       10.81522       14.35978
H         12.17582       10.44913       13.83071
H         12.77827        8.00702       13.66355
H         14.42060        8.38014       14.18553
H         14.72918        9.85253       12.16377
H         13.08347        9.48436       11.64571
H         13.68468        7.03055       11.49829
H         15.34282        7.41522       11.98369
H         15.62596        8.83103        9.91907
H         13.94567        8.47215        9.44401
H         15.33929        4.66522        8.18434
H         16.92805        5.32695        7.94670
H         15.27701        7.12481        5.48905
H         15.70531        3.44457        3.41071
H         16.21679       -0.17744        4.88999
H         16.26802        0.31871        6.61434
H         18.62909        0.52741        4.62230
H         18.46193       -0.70103        5.89391
H         18.68105        0.99879        6.35071
H         14.63300        5.74576        1.98949
H         16.00721        6.80148        2.35114
H         13.14608        7.22933        3.40424
H         13.93746        8.10389        2.06313
H         13.85598       10.08172        3.00225
H         15.13761       10.44449        4.18518
H         13.66710        9.77823        6.06559
H         12.34261        9.36215        4.93006
H         11.74186       10.18946        7.19789
H         10.50697       11.40567        8.92121
H         11.08177       15.08961        6.75930
H         12.33856       13.86803        5.02933
H         10.56237       12.74248       10.64652
H          9.72351       14.15775       11.24887
H         10.89697       16.08708       12.11178
H         11.56418       16.57012       10.53847
H         12.65068       16.26142       11.89938
H         11.38882       13.73670       13.06380
H         13.11334       14.05808       12.77790
H         12.35954       12.59096       12.10976
H         12.84979       14.82487        9.10960
H         13.12808       13.19490        9.74681
H         13.94559       14.59258       10.48565
H         10.71524       16.10363        8.67597
H          9.21184       16.08617        9.61486
H          9.17156       15.74623        7.87615
H          8.47699       12.42935        9.39481
H          8.00420       13.58147        8.12709
H          7.84164       14.02650        9.84464
