130

C          0.67834       -0.06197        0.16787
C          2.20589       -0.02939        0.07392
C          2.72951        0.96758       -0.96585
C          4.25680        0.99196       -1.07756
C          4.78573        1.96733       -2.13429
C          6.31034        1.93886       -2.27387
C          6.86024        2.88978       -3.34208
C          8.37425        2.76118       -3.53030
C          8.96527        3.69576       -4.59094
C         10.44543        3.40896       -4.86093
C         11.08979        4.31880       -5.91136
C         12.51844        3.88586       -6.25394
C         13.21075        4.76610       -7.30000
C         14.57224        4.17109       -7.67103
N         15.32320        4.94203       -8.68983
C         14.99167        4.82986      -10.14256
C         14.15478        3.60172      -10.47852
O         14.92000        2.45953      -10.16199
C         14.17697        1.22939      -10.17633
C         15.03008        0.16002       -9.51600
C         14.32774       -1.19777       -9.41173
C         15.13824       -2.21655       -8.60354
C         14.44334       -3.57086       -8.43915
C         15.23593       -4.55572       -7.57433
C         14.54588       -5.90987       -7.38904
C         15.33334       -6.88080       -6.50414
C         14.65876       -8.24481       -6.33242
C         15.44983       -9.21439       -5.44804
C         14.78131      -10.58210       -5.29337
C         14.35592        6.15355      -10.58514
C         15.38661        7.26819      -10.41348
N         16.21193        7.02902       -9.21904
C         16.05034        6.01646       -8.34695
N         16.62603        6.11898       -7.12110
C         17.35681        5.05071       -6.44125
O         18.66309        5.52941       -6.26373
C         19.44223        4.69389       -5.37693
C         20.79439        5.34318       -5.14003
C         21.68139        4.49097       -4.22266
C         23.03286        5.13840       -3.89879
C         23.92059        4.25401       -3.01618
C         25.24339        4.90956       -2.60614
C         26.12531        4.00301       -1.74115
C         27.43398        4.65766       -1.28834
C         28.30972        3.74154       -0.42639
C         29.61165        4.40030        0.03601
H          0.33545       -0.78816        0.91773
H          0.22512       -0.34022       -0.79540
H          0.27404        0.92176        0.44969
H          2.58162       -1.03739       -0.17151
H          2.63192        0.21781        1.06109
H          2.36283        1.97952       -0.71819
H          2.29610        0.72439       -1.95226
H          4.61912       -0.02502       -1.31150
H          4.69213        1.24638       -0.09505
H          4.45587        2.99194       -1.88787
H          4.32717        1.73003       -3.11051
H          6.62991        0.90831       -2.51116
H          6.77265        2.17827       -1.30005
H          6.60369        3.93098       -3.07872
H          6.35676        2.68888       -4.30423
H          8.61030        1.71693       -3.80271
H          8.88125        2.93951       -2.56582
H          8.83667        4.74604       -4.27620
H          8.39746        3.58928       -5.53194
H         10.54746        2.35872       -5.18693
H         11.01297        3.48545       -3.91709
H         11.09042        5.36264       -5.55321
H         10.47815        4.31179       -6.83052
H         12.49633        2.84377       -6.61940
H         13.12796        3.86786       -5.33338
H         13.34534        5.78917       -6.91122
H         12.57005        4.85034       -8.19225
H         14.47799        3.15169       -8.05983
H         15.18580        4.09295       -6.76821
H         15.95587        4.69480      -10.66227
H         13.91596        3.64745      -11.55906
H         13.18813        3.60022       -9.93809
H         13.91635        0.96033      -11.21692
H         13.22722        1.36919       -9.62172
H         15.30191        0.51188       -8.50630
H         15.97388        0.05916      -10.07507
H         14.13049       -1.59557      -10.42153
H         13.33909       -1.06619       -8.93760
H         15.34894       -1.79498       -7.60455
H         16.12241       -2.36394       -9.08155
H         14.26330       -4.01543       -9.43340
H         13.44508       -3.41603       -7.99276
H         15.41864       -4.10171       -6.58411
H         16.23355       -4.71293       -8.02102
H         14.37688       -6.37179       -8.37753
H         13.54250       -5.75234       -6.95532
H         15.48945       -6.42318       -5.51097
H         16.34224       -7.02489       -6.92980
H         14.50366       -8.70232       -7.32565
H         13.64946       -8.10351       -5.90649
H         15.59475       -8.76002       -4.45300
H         16.46140       -9.34413       -5.86900
H         13.78229      -10.49076       -4.84154
H         15.37417      -11.25017       -4.65371
H         14.65783      -11.07917       -6.26703
H         13.45777        6.34803       -9.98182
H         14.04432        6.11317      -11.63715
H         14.90156        8.25132      -10.32506
H         16.06081        7.30367      -11.28188
H         16.99210        7.65780       -9.05590
H         16.93388        7.04695       -6.83986
H         17.32280        4.14277       -7.07188
H         16.88718        4.82740       -5.46234
H         19.56019        3.69285       -5.83260
H         18.89241        4.56951       -4.42462
H         20.63925        6.34027       -4.69754
H         21.29316        5.49898       -6.10985
H         21.85361        3.50658       -4.69129
H         21.14640        4.28792       -3.27856
H         22.86202        6.10608       -3.39570
H         23.56440        5.37396       -4.83721
H         24.13030        3.30761       -3.54497
H         23.36097        3.97198       -2.10664
H         25.03228        5.84488       -2.05850
H         25.80192        5.20901       -3.51044
H         26.35452        3.07825       -2.29963
H         25.55414        3.68236       -0.85186
H         27.20560        5.57930       -0.72411
H         28.00793        4.98237       -2.17435
H         28.54197        2.82429       -0.99388
H         27.73139        3.41188        0.45346
H         30.23053        4.70788       -0.82014
H         30.21312        3.71586        0.65005
H         29.41340        5.29917        0.63879
