54

F          2.56831       -0.42998        0.60503
C          3.82696       -0.02649        0.85747
C          3.95375        1.59475        0.80102
C          2.58988        2.33675        0.54123
C          2.56691        3.92922        0.66763
C          3.58390        4.74010       -0.21697
C          3.30591        6.28556       -0.44805
C          3.17292        7.28221        0.77237
C          4.39884        7.46064        1.74262
F          5.51908        7.74227        1.05892
F          4.13097        8.47015        2.58353
F          4.60144        6.34173        2.46925
F          2.92078        8.49393        0.22355
F          2.09949        6.90821        1.51891
F          4.32712        6.71237       -1.23186
F          2.15085        6.39017       -1.14950
F          4.82418        4.59990        0.32252
F          3.58837        4.18195       -1.45745
F          1.30181        4.27097        0.32994
F          2.77189        4.22403        1.97476
F          2.13648        1.96689       -0.67322
F          1.70403        1.90824        1.49330
F          4.49237        2.04151        1.96846
F          4.80987        1.87555       -0.19747
N          4.24454       -0.67896        2.18155
C          5.74891       -0.32755        2.54711
O          6.28537       -1.51929        2.98111
C          5.85758       -2.49882        2.02673
C          4.33980       -2.28017        1.92501
C          3.48532       -3.09656        2.85656
C          3.95389       -3.59376        4.08080
C          3.09139       -4.36629        4.86304
N          1.83162       -4.66096        4.51154
C          1.39400       -4.19798        3.33315
C          2.17678       -3.42134        2.47329
C          3.23410       -0.28330        3.27914
C          3.77817       -0.29267        4.68249
O          4.53336        0.86664        5.07363
C          3.22636        0.68476        5.64075
F          4.62439       -0.52537       -0.10530
H          5.76814        0.42233        3.34055
H          6.20830        0.03485        1.61345
H          6.11575       -3.49080        2.40905
H          6.35356       -2.33895        1.05562
H          3.97967       -2.42361        0.90239
H          4.96749       -3.39641        4.43236
H          3.43103       -4.76901        5.82081
H          0.37035       -4.46471        3.05823
H          1.76937       -3.08548        1.51744
H          2.38795       -0.97246        3.18295
H          2.89046        0.72713        3.04621
H          4.15886       -1.23826        5.07354
H          2.46970        1.40321        5.31115
H          3.20989        0.42346        6.70151
