45

C          0.49999        3.65331       -6.20103
C          2.01408        3.71908       -5.98579
C          2.67171        2.33652       -5.90768
C          4.19102        2.38397       -5.71118
C          4.82024        0.98963       -5.59559
C          6.35594        0.96967       -5.55526
C          6.97066        1.63468       -4.31391
C          8.49493        1.46833       -4.21256
C          9.22202        2.30340       -5.27937
N         10.62892        1.90539       -5.44353
N         11.62583        2.47062       -4.80298
N         12.73180        1.79488       -5.06056
C         12.40731        0.77737       -5.87845
N         11.07268        0.81860       -6.12965
C         10.23667        0.01953       -7.03819
C         10.04804        0.69414       -8.40689
O         11.36785        0.94728       -8.87850
C          9.23152       -0.21226       -9.32308
I         13.74557       -0.60740       -6.58047
H          0.05623        4.65683       -6.24404
H          0.00435        3.10623       -5.38525
H          0.25138        3.13929       -7.14129
H          2.23174        4.27675       -5.05906
H          2.47853        4.29740       -6.80288
H          2.44307        1.77072       -6.82800
H          2.21566        1.76305       -5.08173
H          4.41666        2.98049       -4.81079
H          4.65137        2.92442       -6.55853
H          4.49160        0.37868       -6.45208
H          4.42991        0.48125       -4.69742
H          6.73118        1.45215       -6.47766
H          6.69621       -0.08092       -5.59318
H          6.52658        1.18989       -3.41014
H          6.71244        2.70531       -4.27801
H          8.75370        0.40282       -4.32886
H          8.86230        1.77524       -3.22306
H          9.27096        3.36435       -5.00463
H          8.74548        2.22911       -6.26490
H          9.27454       -0.17260       -6.54816
H         10.76826       -0.93400       -7.15902
H          9.50734        1.65118       -8.26485
H         11.32347        1.34194       -9.76411
H          9.72372       -1.18501       -9.45809
H          9.12350        0.25700      -10.31019
H          8.21976       -0.37405       -8.92530
