41

O          7.15698        6.19245       -3.05130
C          7.15608        5.52017       -1.78803
C          8.07540        4.31860       -1.92383
N          7.58553        3.42962       -2.97956
C          8.45045        2.30632       -3.29995
C          8.17607        1.10892       -2.37035
C          6.74084        0.59787       -2.57764
C          6.34434       -0.40724       -1.54281
C          6.64596       -1.74824       -1.75714
N          6.34594       -2.69426       -0.84008
C          5.73467       -2.43294        0.34622
C          5.42563       -1.10741        0.61977
C          5.72390       -0.09778       -0.30734
I          5.22081        1.86782        0.19359
C          5.42251       -3.58269        1.25638
C          3.99029       -4.15637        1.13721
C          3.65495       -4.62453       -0.29797
F          4.66226       -5.35748       -0.85241
F          2.54181       -5.38095       -0.30786
F          3.44262       -3.55567       -1.11596
O          3.95386       -5.23102        2.04393
O          9.04215        0.00257       -2.63633
H          6.54340        6.94099       -3.01401
H          6.13682        5.17953       -1.52597
H          7.52800        6.17714       -0.98253
H          8.09209        3.78426       -0.96018
H          9.10843        4.67278       -2.12240
H          7.39956        3.99244       -3.80924
H          9.53204        2.55445       -3.22497
H          8.26774        1.98842       -4.33770
H          8.29195        1.43472       -1.31841
H          6.68543        0.14481       -3.57871
H          6.07718        1.47391       -2.55761
H          7.14400       -2.09028       -2.66268
H          6.55836       -3.66797       -1.06352
H          4.94674       -0.86650        1.56761
H          5.54266       -3.26375        2.29977
H          6.12843       -4.41061        1.09348
H          3.24669       -3.37278        1.37717
H          3.05315       -5.59458        2.08438
H          9.96188        0.28831       -2.51414
