45

O          4.72771       -2.14464        2.96095
C          4.01705       -0.98684        2.48329
C          3.57348       -1.16052        1.02676
C          2.53884       -2.28668        0.73802
C          1.26999       -2.22789        1.62400
S          1.49600       -3.61639        2.87941
C          2.67843       -4.33143        1.90840
N          3.09193       -3.66181        0.85865
C          4.06398       -4.20824       -0.12128
C          5.52135       -4.04631        0.41195
O          5.65670       -4.53209        1.72854
C          3.74252       -5.66411       -0.46380
C         -0.04604       -2.36952        0.92169
C         -0.23612       -3.25194       -0.15154
C         -1.46940       -3.35872       -0.78975
C         -2.53669       -2.57177       -0.34865
C         -2.38161       -1.68921        0.72080
C         -1.14221       -1.58918        1.36764
O         -0.89407       -0.77524        2.43327
C         -1.94569        0.08188        2.90435
C          3.00568        0.17310        0.51055
H          5.05399       -1.95128        3.85365
H          4.67324       -0.10257        2.52824
H          3.14837       -0.78528        3.13554
H          4.47346       -1.38883        0.43345
H          2.23037       -2.17153       -0.31240
H          1.26105       -1.31249        2.22481
H          3.06933       -5.32371        2.12805
H          3.94917       -3.58389       -1.02039
H          5.83948       -2.99486        0.33822
H          6.17602       -4.64009       -0.24331
H          5.45770       -3.77561        2.31798
H          3.99877       -6.34237        0.36126
H          4.34418       -5.96698       -1.32974
H          2.68405       -5.79754       -0.72337
H          0.59360       -3.87343       -0.49551
H         -1.59904       -4.04780       -1.62312
H         -3.50703       -2.64387       -0.84030
H         -3.22741       -1.08834        1.04928
H         -1.51099        0.64708        3.73451
H         -2.80165       -0.50482        3.26913
H         -2.27313        0.77681        2.11689
H          2.11451        0.48931        1.07212
H          2.72416        0.09848       -0.54774
H          3.75406        0.97008        0.60213
