75

C          4.16143        4.72193       -4.41423
C          4.95571        3.69995       -3.59725
C          5.65219        2.63674       -4.45502
C          6.44699        1.61925       -3.63013
C          7.12754        0.52822       -4.46448
C          7.89863       -0.48214       -3.60826
C          8.56958       -1.60398       -4.40844
C          9.28050       -2.62474       -3.51152
C          9.98928       -3.74004       -4.29036
C         10.56182       -4.80201       -3.34648
N         11.32574       -5.86297       -4.05070
C         10.71751       -6.71293       -4.88362
N         11.42115       -7.39270       -5.84053
C         12.22415       -6.69508       -6.84195
C         11.35689       -5.77079       -7.71350
O         10.16560       -5.60334       -7.52395
O         12.10078       -5.20302       -8.65861
C         11.42161       -4.28014       -9.58454
C         12.43352       -3.85270      -10.63001
C         11.82033       -2.87309      -11.63620
N          9.40309       -6.98471       -4.77233
C         12.76021       -5.98858       -3.71834
C         12.98238       -6.50856       -2.28938
C         14.46786       -6.74088       -1.97381
C         15.28920       -5.44831       -1.80774
N         16.69403       -5.70942       -1.56187
C         17.66188       -5.83029       -2.53962
C         18.84163       -6.21566       -1.93244
C         18.57991       -6.34288       -0.53939
C         17.24856       -6.03144       -0.33909
H          3.67624        5.46404       -3.76588
H          3.37308        4.23517       -5.00724
H          4.81122        5.26771       -5.11396
H          4.28356        3.19986       -2.87966
H          5.71073        4.22317       -2.98675
H          6.32512        3.13252       -5.17669
H          4.89707        2.10696       -5.06220
H          5.77260        1.14338       -2.89647
H          7.21023        2.15053       -3.03485
H          7.81372        0.99478       -5.19288
H          6.36659       -0.00328       -5.06253
H          7.20905       -0.92832       -2.87006
H          8.66526        0.05055       -3.01882
H          9.29314       -1.16971       -5.12006
H          7.81321       -2.12312       -5.02265
H          8.54085       -3.07111       -2.82338
H         10.01198       -2.10335       -2.87045
H         10.81185       -3.32131       -4.89278
H          9.29073       -4.20079       -5.00633
H          9.77735       -5.24588       -2.71145
H         11.26881       -4.33775       -2.64766
H         10.90997       -8.19147       -6.20825
H         12.72535       -7.44278       -7.46925
H         13.02050       -6.09810       -6.37916
H         11.04294       -3.43219       -8.99470
H         10.56181       -4.80877      -10.02005
H         12.81012       -4.74617      -11.15084
H         13.29661       -3.39011      -10.12747
H         10.97128       -3.32113      -12.17139
H         12.56417       -2.57702      -12.38563
H         11.46218       -1.95749      -11.14427
H          8.88046       -6.66933       -3.96417
H          8.87374       -7.14787       -5.62266
H         13.22775       -5.00518       -3.87704
H         13.21775       -6.69562       -4.41799
H         12.43508       -7.45783       -2.18344
H         12.54912       -5.81328       -1.55211
H         14.93137       -7.36091       -2.75794
H         14.54295       -7.32154       -1.04341
H         14.88933       -4.85244       -0.97205
H         15.22644       -4.81655       -2.70692
H         17.43096       -5.61505       -3.57842
H         19.79160       -6.37026       -2.43348
H         19.29058       -6.61428        0.23422
H         16.65347       -5.99714        0.56802
