106

C          1.07051        0.20374       -0.53266
C          0.46142       -0.70107       -1.60842
C         -1.07045       -0.68925       -1.61671
C         -1.68791       -1.55981       -2.71624
C         -3.21817       -1.58272       -2.67470
C         -3.83521       -2.41968       -3.80380
N         -5.28713       -2.49239       -3.73191
C         -6.00130       -3.42893       -3.01584
C         -7.34183       -3.09372       -3.07934
C         -7.44286       -1.90488       -3.85473
C         -6.16089       -1.55433       -4.23885
C          2.60182        0.16857       -0.49476
C          3.20506        1.11017        0.55254
C          4.73233        1.02823        0.64107
C          5.32840        1.99470        1.67014
C          6.83976        1.81590        1.85899
C          7.38373        2.80195        2.89331
N          8.80907        2.58883        3.23546
C          9.81049        3.45585        2.83762
C         10.98940        2.95492        3.29583
N         10.69360        1.78105        3.96549
C          9.35201        1.55758        3.93118
C          8.67023        0.34828        4.48607
C          7.37794        0.56945        5.29702
C          6.89387       -0.72564        5.96316
C          5.46357       -0.59495        6.49981
C          4.92788       -1.85465        7.19035
C          3.43627       -1.74964        7.53013
C          2.87290       -2.95557        8.29002
C          1.35552       -2.87540        8.49381
C          0.77539       -4.00881        9.34690
C         -0.75093       -3.94220        9.47740
C         -1.33630       -5.00237       10.41490
C         -2.87053       -4.95430       10.46991
N         -3.44473       -5.87012       11.44487
C         -3.68753       -7.21144       11.24035
C         -4.12830       -7.75877       12.43223
C         -4.14625       -6.71251       13.39636
C         -3.71554       -5.56182       12.76091
C         11.69651        0.96666        4.65948
C         11.82800        1.29727        6.13926
C         11.50760        2.60772        6.72183
O         10.60955        1.48244        6.86592
H          0.67607       -0.08826        0.45664
H          0.73254        1.24199       -0.69646
H          0.81760       -1.73603       -1.46176
H          0.83612       -0.39105       -2.59976
H         -1.42797        0.34876       -1.73228
H         -1.44206       -1.02721       -0.63346
H         -1.30223       -2.59078       -2.62617
H         -1.34824       -1.19575       -3.70201
H         -3.61395       -0.55596       -2.73713
H         -3.56194       -1.98741       -1.70884
H         -3.44364       -3.44817       -3.77490
H         -3.56029       -2.00241       -4.78484
H         -5.49554       -4.25934       -2.53307
H         -8.15756       -3.65297       -2.63243
H         -8.35180       -1.37338       -4.11780
H         -5.79745       -0.72427       -4.83635
H          2.99990        0.42842       -1.49118
H          2.93788       -0.86434       -0.29547
H          2.77286        0.88081        1.54252
H          2.90519        2.14811        0.32587
H          5.17312        1.23079       -0.35006
H          5.02594       -0.00469        0.89864
H          4.82549        1.84673        2.64223
H          5.10937        3.03389        1.37067
H          7.37075        1.95652        0.90414
H          7.04051        0.78141        2.17933
H          6.80613        2.76616        3.82484
H          7.31992        3.83162        2.51841
H          9.59627        4.35189        2.26824
H         12.00242        3.32724        3.20593
H          9.39242       -0.16741        5.13049
H          8.46132       -0.33771        3.64602
H          6.57332        0.93025        4.64055
H          7.55055        1.34623        6.05783
H          7.58458       -1.00588        6.77585
H          6.92837       -1.55045        5.22980
H          4.79575       -0.33606        5.65834
H          5.40838        0.25608        7.20071
H          5.50875       -2.04742        8.10859
H          5.09121       -2.73025        6.53792
H          2.86698       -1.61325        6.59336
H          3.25974       -0.83535        8.12361
H          3.37409       -3.03673        9.27028
H          3.12023       -3.88426        7.74641
H          0.85963       -2.87011        7.50692
H          1.10201       -1.90768        8.96177
H          1.23083       -3.97838       10.35197
H          1.06262       -4.98308        8.91451
H         -1.20327       -4.04343        8.47471
H         -1.04119       -2.93923        9.83754
H         -0.94292       -4.86171       11.43465
H         -1.02028       -6.00935       10.09715
H         -3.29619       -5.19027        9.48204
H         -3.20909       -3.93879       10.72650
H         -3.53450       -7.65984       10.26374
H         -4.41949       -8.79288       12.58606
H         -4.45515       -6.78645       14.43411
H         -3.59044       -4.54804       13.12811
H         12.65885        1.12776        4.15497
H         11.44114       -0.09315        4.53058
H         12.57632        0.67274        6.64188
H         11.13260        3.41814        6.09022
H         12.01245        2.91737        7.64022
