47

C          1.22339        2.73697        3.77077
C          2.73569        2.84098        3.56267
C          3.11594        3.31643        2.15473
C          4.63301        3.41785        1.94549
C          4.98280        3.89338        0.54823
O          6.43321        3.95109        0.42853
C          6.86874        4.42705       -0.79409
N          8.37069        4.52198       -0.68055
C          8.83437        5.52721        0.34853
C          9.01070        6.81804       -0.45176
C          9.51016        6.35654       -1.83185
C          9.05136        4.89546       -2.01799
C         10.18019        3.91138       -2.32297
C          9.75023        2.45023       -2.50599
C         10.92727        1.53441       -2.85521
N         10.01802        7.66609        0.21080
O          9.99877        8.86720       -0.57547
O          9.39523        7.97477        1.47726
H          0.98399        2.39623        4.78659
H          0.76982        2.02388        3.06675
H          0.73001        3.70875        3.62233
H          3.20419        1.86094        3.75279
H          3.16514        3.53267        4.30656
H          2.64937        4.29866        1.96522
H          2.68566        2.62486        1.40981
H          5.10325        2.43644        2.11722
H          5.06860        4.11432        2.67987
H          4.57343        4.90098        0.35226
H          4.59082        3.20362       -0.22043
H          6.48125        5.43361       -1.04252
H          6.66218        3.73585       -1.63328
H          8.67862        3.57962       -0.39989
H          9.80252        5.18548        0.73863
H          8.10681        5.56679        1.16313
H          8.06300        7.38001       -0.52008
H         10.60790        6.40609       -1.84276
H          9.14091        7.00297       -2.63412
H          8.26460        4.80837       -2.78102
H         10.95359        3.99254       -1.53822
H         10.66238        4.26953       -3.24647
H          8.98187        2.39038       -3.29435
H          9.26994        2.06294       -1.58628
H         11.40118        1.84330       -3.79728
H         10.59687        0.49515       -2.97302
H         11.69741        1.55355       -2.07105
H         10.90635        9.20805       -0.48504
H         10.15529        8.15181        2.05983
