50

C          0.08589       -3.36802        4.73607
C          1.51567       -3.27936        5.27582
C          2.57941       -3.47390        4.19042
C          4.01912       -3.38090        4.71059
C          5.05530       -3.56333        3.59396
C          6.48379       -3.45752        4.09047
O          7.36668       -3.59325        2.93274
C          8.67989       -3.36237        3.14266
S          9.55730       -4.92711        3.94297
C          8.88833       -6.27279        2.99195
C          8.91790       -6.31400        1.59131
C          8.35535       -7.41006        0.94052
C          7.76860       -8.44475        1.67968
C          7.73528       -8.38773        3.07484
C          8.29434       -7.29588        3.74277
C         11.28701       -4.77535        3.34067
C         11.87716       -3.41378        3.75413
O         11.42217       -2.96440        5.01449
C         12.00832       -3.62607        6.15130
C         11.42817       -3.00568        7.41019
O         10.02264       -3.24284        7.52133
H         -0.65318       -3.22852        5.53616
H         -0.10780       -4.34676        4.27277
H         -0.10237       -2.59818        3.97325
H          1.65934       -4.03465        6.06681
H          1.66653       -2.30049        5.76141
H          2.43199       -2.72002        3.39750
H          2.43054       -4.45445        3.70519
H          4.17566       -4.14117        5.49539
H          4.16810       -2.40211        5.19835
H          4.90069       -2.80175        2.81319
H          4.91981       -4.54395        3.11038
H          6.72408       -4.25598        4.81460
H          6.68540       -2.48169        4.56514
H          8.92577       -2.58068        3.87968
H          9.19144       -3.21537        2.18281
H          9.36360       -5.50814        1.00734
H          8.37291       -7.45547       -0.14833
H          7.33461       -9.29977        1.16098
H          7.27853       -9.19448        3.64799
H          8.27749       -7.24109        4.83197
H         11.30466       -4.91098        2.25165
H         11.79896       -5.62657        3.80912
H         11.58165       -2.63839        3.03368
H         12.97914       -3.49536        3.71798
H         13.10621       -3.49968        6.13295
H         11.77482       -4.70635        6.13923
H         11.65679       -1.92840        7.43836
H         11.91307       -3.47477        8.28019
H          9.55912       -2.46356        7.18307
