45

Br         1.50473       -0.01202        3.15617
C          3.36811       -0.22896        2.46255
C          3.60774       -1.60449        1.87124
C          3.07063       -1.90761        0.46489
C          1.56523       -2.19344        0.32902
C          1.28428       -3.28451       -0.71241
O         -0.09776       -3.54617       -0.86276
C         -0.80141       -2.39284       -1.31557
C         -0.76457       -1.27932       -0.26955
N          0.72399       -0.92562        0.04291
C          1.28097        0.09923       -0.87470
C          1.70550       -0.18885       -2.17462
C          2.18629        0.85051       -2.97500
C          2.23705        2.15890       -2.48908
C          1.80575        2.43514       -1.18996
C          1.32761        1.40446       -0.37839
C         -1.50219       -1.60534        1.03662
C         -3.03584       -1.42662        0.92797
O         -3.59953       -2.30839       -0.05155
C         -3.71536       -1.58373        2.28380
Br         5.58705       -1.72348        1.76463
H          3.97538       -0.05963        3.35413
H          3.51129        0.58236        1.74099
H          3.33060       -2.39011        2.58506
H          3.58616       -2.81630        0.12260
H          3.38252       -1.11659       -0.23159
H          1.15473       -2.54329        1.28753
H          1.74130       -4.21469       -0.34776
H          1.75417       -3.04596       -1.68504
H         -1.84758       -2.68750       -1.45665
H         -0.40048       -2.04516       -2.28413
H         -1.16786       -0.35326       -0.70545
H          0.69874       -0.45634        0.97434
H          1.67914       -1.19834       -2.57576
H          2.52466        0.62791       -3.98681
H          2.61277        2.96167       -3.12308
H          1.83919        3.45278       -0.80182
H          0.99088        1.61939        0.63768
H         -1.15239       -0.92793        1.83288
H         -1.27987       -2.63364        1.36083
H         -3.23630       -0.41324        0.53771
H         -3.86746       -3.13133        0.38901
H         -3.53152       -2.58533        2.70387
H         -4.79886       -1.44589        2.17745
H         -3.34979       -0.84462        3.00960
