52

C         15.14708        3.30441        0.39741
C         14.80916        2.50726       -0.86382
C         13.30665        2.26326       -1.03562
C         12.96226        1.49489       -2.31561
C         11.45726        1.24531       -2.48317
C         11.15123        0.53501       -3.79453
O          9.74809        0.18102       -3.94914
C          8.90699        1.25724       -4.27219
C          8.85134        1.49996       -5.77073
N          8.85283        0.55863       -6.72172
C          8.75121       -0.94938       -6.55576
O          7.47922       -1.33476       -6.21078
C          6.53173       -1.47746       -7.30960
C          5.31464       -2.21842       -6.78805
C          4.26159       -2.45190       -7.87924
C          3.04592       -3.22090       -7.35735
N          8.81523        1.09180       -7.98288
C          8.79906        2.38336       -7.79603
N          8.81395        2.69603       -6.44691
C          8.76320        4.05778       -5.84241
O          8.52285        4.14889       -4.67110
C          9.01907        5.17591       -6.80330
H         16.23008        3.45620        0.49594
H         14.79994        2.78538        1.30288
H         14.67205        4.29644        0.38123
H         15.33244        1.53688       -0.84066
H         15.19364        3.03855       -1.75100
H         12.77702        3.23218       -1.03811
H         12.92336        1.70907       -0.16175
H         13.49398        0.52810       -2.31701
H         13.34453        2.05487       -3.18745
H         10.92399        2.20990       -2.43140
H         11.08038        0.62863       -1.65240
H         11.67595       -0.42942       -3.84241
H         11.48302        1.13771       -4.66216
H          9.18124        2.19562       -3.77203
H          7.88523        1.00112       -3.94238
H          9.42843       -1.20270       -5.73340
H          9.09702       -1.33992       -7.52618
H          7.02410       -2.03624       -8.12491
H          6.25815       -0.47872       -7.69285
H          4.87224       -1.64671       -5.95664
H          5.64144       -3.18376       -6.37063
H          4.71723       -3.00672       -8.71586
H          3.93698       -1.48270       -8.29328
H          3.33632       -4.20781       -6.96988
H          2.30575       -3.37919       -8.15229
H          2.54891       -2.67569       -6.54203
H          8.76634        3.11857       -8.59285
H          9.96450        5.03292       -7.34556
H          9.05186        6.11015       -6.23510
H          8.20770        5.24214       -7.54446
