47

O          1.24157        0.23152       -0.05353
S          2.71238       -0.06626       -0.58890
O          3.54327       -0.53792        0.50418
O          2.57808       -0.81429       -1.80946
C          3.30799        1.60769       -0.99339
C          4.83331        1.56410       -1.14980
C          5.45308        2.95530       -1.00590
N          6.90169        2.95333       -0.54260
C          7.78908        1.94809       -1.25260
C          8.14924        0.90083       -0.16600
O          7.36223        1.26543        0.97945
C          7.22478        2.64153        1.02658
C          6.11660        3.05677        2.00529
C          5.03763        2.01702        2.33169
C          4.02387        2.59737        3.32373
S          2.59918        1.50582        3.49394
O          1.77116        1.62896        2.29339
O          3.03826        0.22297        3.96200
O          1.81020        2.25489        4.68458
C          8.51525        3.45338        1.30126
C          9.35719        3.02504        2.49868
C          9.06784        1.92766        3.44535
O         10.03708        1.77098        2.39108
H          1.31321        0.55526        0.88323
H          3.00259        2.24461       -0.15038
H          2.77687        1.93608       -1.89538
H          5.08750        1.11862       -2.12124
H          5.22554        0.89332       -0.37241
H          4.90375        3.56557       -0.27723
H          5.44588        3.50396       -1.95829
H          7.26534        3.89561       -0.72185
H          8.67038        2.46922       -1.63975
H          7.23710        1.51849       -2.09187
H          9.21899        0.91773        0.08245
H          7.84903       -0.11539       -0.44303
H          5.66710        3.99673        1.64409
H          6.63334        3.33763        2.93559
H          5.49622        1.11432        2.75507
H          4.51286        1.67950        1.43236
H          3.61793        3.56753        3.00215
H          4.43854        2.70824        4.33584
H          0.93936        2.54295        4.34743
H          8.21818        4.50408        1.45120
H          9.19274        3.44626        0.43100
H          9.99271        3.83948        2.86615
H          8.17379        1.31032        3.33583
H          9.48689        1.98438        4.45370
