77

C          0.25933        0.06053        0.02584
C          1.62913        0.69955        0.26832
C          2.32225        1.16118       -1.01862
C          3.69648        1.79542       -0.78081
C          4.40944        2.22771       -2.06629
C          5.76678        2.89337       -1.81645
C          6.53308        3.23324       -3.09883
C          7.85762        3.96010       -2.84396
C          8.68014        4.19704       -4.11459
C          9.97767        4.97236       -3.86280
C         10.85248        5.10968       -5.11347
C         12.13573        5.90972       -4.86464
C         13.02732        5.95787       -6.11364
N         14.37698        6.50756       -5.87771
C         15.59960        5.68021       -5.66601
C         15.45433        4.18899       -5.92175
C         14.76400        3.39999       -4.80380
C         14.80477        1.87915       -5.05800
C         14.12393        1.13985       -4.00458
C         13.54956        0.56674       -3.10751
O         16.59095        6.16705       -6.58183
C         17.04082        7.46532       -6.27460
N         15.86907        8.28243       -5.87630
C         14.60112        7.82778       -5.90729
N         13.58871        8.71572       -5.96661
C         18.12334        7.54060       -5.24626
N         19.27088        8.12767       -5.39354
N         19.96935        7.95151       -4.20840
C         19.18516        7.25507       -3.41967
O         17.97031        6.95862       -4.00938
S         19.56250        6.72605       -1.81863
C         18.06917        5.75890       -1.36652
C         18.28822        5.19370        0.03535
H         -0.21141       -0.25427        0.96728
H          0.34165       -0.82830       -0.61772
H         -0.42748        0.76286       -0.46978
H          2.28284       -0.01767        0.79354
H          1.51925        1.56063        0.94951
H          1.67181        1.88289       -1.54382
H          2.42979        0.30079       -1.70307
H          4.33765        1.07973       -0.23572
H          3.58493        2.66769       -0.11244
H          3.76149        2.92137       -2.63071
H          4.54815        1.34755       -2.71901
H          6.38903        2.22777       -1.19201
H          5.61882        3.81177       -1.22103
H          5.89770        3.85454       -3.75457
H          6.72787        2.30354       -3.66191
H          8.46191        3.37848       -2.12585
H          7.65308        4.92735       -2.35208
H          8.06794        4.74050       -4.85526
H          8.92102        3.22375       -4.57662
H         10.55893        4.46672       -3.07202
H          9.73525        5.97477       -3.46870
H         10.27180        5.58090       -5.92520
H         11.12151        4.10309       -5.47894
H         12.70346        5.46165       -4.03408
H         11.87330        6.92724       -4.52347
H         12.56002        6.54089       -6.92215
H         13.16008        4.94703       -6.51462
H         15.93737        5.85605       -4.63036
H         16.49055        3.83333       -6.02634
H         14.98311        4.01545       -6.90200
H         13.71261        3.69363       -4.68365
H         15.25385        3.61388       -3.84064
H         15.85061        1.53684       -5.13580
H         14.33478        1.64957       -6.02984
H         13.05247        0.03099       -2.32602
H         17.47368        7.87201       -7.20165
H         16.03261        9.27099       -5.71099
H         13.76624        9.69120       -6.16872
H         12.64813        8.45131       -5.70236
H         17.93836        4.95695       -2.10532
H         17.19721        6.42548       -1.39854
H         19.16552        4.53468        0.07279
H         17.41079        4.60319        0.33102
H         18.42253        5.99189        0.77736
