57

O         -4.83351        0.27173       -1.71823
C         -4.38415        1.28014       -0.80488
C         -3.30465        2.04957       -1.56230
C         -2.00129        1.22084       -1.73086
C         -1.17969        1.48557       -3.00611
N         -1.33807        2.92862       -3.48136
C         -0.60427        3.96273       -2.63370
C         -0.71084        5.26046       -3.26861
C         -0.75359        6.33094       -3.82791
C          0.85445        3.48324       -2.46888
O          0.90253        2.16384       -1.96348
C          0.33078        1.20968       -2.87211
C          0.67839       -0.18936       -2.37924
C          0.28196       -1.30776       -3.35264
C          0.59220       -2.72680       -2.82976
C         -0.39682       -3.13822       -1.72098
C         -0.01428       -4.41233       -0.94240
C         -1.00147       -4.73029        0.14461
C         -1.91823       -5.71581        0.15890
C         -2.10497       -6.72277       -0.94583
C         -2.84564       -5.88772        1.33366
C          0.59501       -3.72605       -3.99508
O         -3.85445        2.47778       -2.82931
H         -5.65292       -0.12585       -1.38702
H         -3.96779        0.84134        0.11800
H         -5.20248        1.96763       -0.53683
H         -3.08998        2.97668       -1.00847
H         -2.25640        0.15194       -1.74997
H         -1.37485        1.38804       -0.84287
H         -1.58909        0.89432       -3.83726
H         -2.37989        3.09006       -3.49314
H         -0.99089        3.01279       -4.44652
H         -1.09814        3.96119       -1.65068
H         -0.80142        7.28695       -4.31079
H          1.36395        4.13444       -1.74821
H          1.37874        3.56087       -3.44142
H          0.79047        1.36156       -3.87317
H          0.22864       -0.34564       -1.38746
H          1.76759       -0.20439       -2.22511
H          0.81197       -1.15130       -4.30720
H         -0.79656       -1.26110       -3.59171
H          1.60865       -2.70701       -2.39433
H         -1.39600       -3.28314       -2.16912
H         -0.50844       -2.31702       -0.99196
H          0.98502       -4.26514       -0.49636
H          0.08385       -5.25866       -1.63594
H         -0.97117       -4.06202        1.01353
H         -1.43740       -6.56467       -1.80053
H         -3.14161       -6.69936       -1.31838
H         -1.93710       -7.74506       -0.57057
H         -2.66915       -5.13065        2.10851
H         -2.72098       -6.88188        1.79270
H         -3.90052       -5.82383        1.02025
H         -0.39617       -3.77748       -4.47266
H          0.85409       -4.73933       -3.66307
H          1.32456       -3.43818       -4.76502
H         -4.44303        1.75216       -3.12383
