42

F          5.09790        1.73503        0.78024
C          5.00696        0.99207       -0.40863
C          5.39538       -0.44866       -0.11014
C          4.44096       -1.06083        0.92691
N          4.95507       -2.31152        1.50592
C          4.79006       -3.60351        1.12646
N          5.56011       -4.37635        1.92060
N          6.19519       -3.59378        2.77207
N          5.84794       -2.35016        2.53362
C          6.26125       -1.22125        3.38715
C          5.23118       -0.88924        4.46997
O          5.03767       -2.03826        5.24655
C          4.17884       -1.81860        6.38805
C          4.05107       -3.12136        7.14901
C          3.93283       -4.09341        0.01975
C          4.67066       -4.27766       -1.34411
C          5.76026       -5.35127       -1.27098
C          3.63108       -4.60680       -2.42105
H          5.69349        1.43778       -1.14181
H          3.97342        1.08260       -0.77789
H          6.42875       -0.46308        0.26854
H          5.38170       -1.03157       -1.04252
H          3.46539       -1.30568        0.48757
H          4.26584       -0.36102        1.75320
H          6.47066       -0.35286        2.74975
H          7.19385       -1.57100        3.84667
H          4.28012       -0.52787        4.02512
H          5.65357       -0.04685        5.05429
H          3.19335       -1.46189        6.03490
H          4.61982       -1.02677        7.02022
H          3.61133       -3.90520        6.51885
H          3.40077       -2.97757        8.02173
H          5.03091       -3.46581        7.50373
H          3.07767       -3.41431       -0.11414
H          3.53135       -5.06712        0.33911
H          5.14318       -3.31332       -1.60307
H          5.32635       -6.33225       -1.02735
H          6.52761       -5.13119       -0.51698
H          6.26324       -5.44164       -2.24272
H          3.12297       -5.55670       -2.19869
H          4.11797       -4.71291       -3.39925
H          2.86470       -3.82367       -2.50904
