82

C          0.33980        0.64131       -0.00614
C          1.80552        0.75446        0.42172
C          2.43467       -0.59171        0.79836
C          3.90503       -0.49081        1.21585
C          4.54857       -1.84543        1.52899
C          6.02783       -1.75091        1.91571
C          6.68794       -3.11462        2.13888
C          8.17747       -3.03177        2.48709
C          8.84259       -4.40457        2.62416
C         10.34276       -4.34079        2.92728
C         10.99626       -5.72395        2.99391
C         12.50954       -5.68541        3.23401
C         13.11087       -7.09262        3.23945
C         14.61025       -7.20668        3.40336
C         15.42355       -6.09767        3.58254
C         16.82903       -6.20205        3.69387
C         17.45091       -7.42925        3.65588
C         16.66653       -8.60476        3.51390
C         15.23597       -8.49432        3.36064
C         14.48432       -9.68054        3.14350
C         15.09938      -10.90494        3.07603
N         16.45723      -10.95770        3.24775
C         17.25750       -9.89795        3.46343
C         18.69578      -10.19806        3.59843
C         19.32533      -11.00477        2.63075
C         20.67564      -11.32627        2.75807
C         21.40589      -10.86296        3.85640
C         20.78260      -10.07493        4.82890
C         19.43595       -9.73625        4.70291
C         14.35749      -12.21567        2.91357
C         15.19073      -13.29611        2.22186
O         16.39937      -13.44449        2.39169
O         14.43616      -14.08680        1.46876
C         15.10732      -15.23672        0.83219
C         14.05444      -16.01350        0.07660
C         13.90116      -12.76637        4.29349
H         -0.07892        1.62084       -0.27542
H         -0.28145        0.22510        0.80119
H          0.22931       -0.01858       -0.87993
H          1.88851        1.44685        1.27676
H          2.39287        1.21149       -0.39297
H          2.34640       -1.28449       -0.05771
H          1.85189       -1.05104        1.61659
H          3.99241        0.17025        2.09612
H          4.47842        0.00301        0.41119
H          4.44668       -2.50556        0.64910
H          3.98780       -2.34030        2.34177
H          6.13305       -1.13544        2.82638
H          6.57559       -1.21108        1.12284
H          6.56407       -3.72767        1.22844
H          6.15385       -3.65554        2.94027
H          8.30761       -2.46212        3.42401
H          8.70082       -2.45221        1.70581
H          8.68835       -4.97328        1.69011
H          8.33335       -4.98230        3.41551
H         10.50661       -3.80741        3.87967
H         10.84548       -3.73751        2.15131
H         10.79623       -6.26128        2.04965
H         10.51390       -6.32024        3.78869
H         12.71744       -5.17736        4.19085
H         12.98410       -5.07760        2.44485
H         12.82598       -7.59132        2.29571
H         12.62323       -7.68161        4.03733
H         14.97232       -5.10650        3.61953
H         17.42405       -5.29480        3.79845
H         18.53479       -7.50582        3.71400
H         13.40397       -9.63271        3.02228
H         16.86145      -11.91311        3.13596
H         18.76509      -11.35670        1.76262
H         21.15901      -11.93714        1.99558
H         22.46060      -11.11945        3.95811
H         21.34564       -9.72792        5.69546
H         18.94769       -9.14593        5.47877
H         13.46628      -12.02972        2.29940
H         15.58503      -15.82476        1.62768
H         15.89451      -14.83969        0.17690
H         13.27501      -16.39232        0.75018
H         14.52629      -16.87486       -0.41480
H         13.58280      -15.39647       -0.69901
H         14.76639      -12.97904        4.93509
H         13.32604      -13.69108        4.16083
H         13.26426      -12.02964        4.79794
