51

C          6.26228       -3.58833       -2.62812
C          6.12546       -2.66529       -1.41640
C          7.30764       -2.76470       -0.44560
C          7.15892       -1.83201        0.76082
C          8.33180       -1.91552        1.72235
O          8.07359       -1.02745        2.82579
C          9.10836       -0.98986        3.77373
C          8.59367       -0.10566        4.92764
C          9.65303        0.27012        5.90385
N         10.45472        1.40701        5.74647
C         10.34583        2.41996        4.67817
C          9.56249        3.64781        5.12938
O         10.29180        4.22257        6.19937
C          9.68249        5.37043        6.77290
C         10.49169        5.74378        8.01201
F         11.78198        6.01302        7.70720
F          9.95364        6.83358        8.59565
F         10.49350        4.73209        8.92190
C         11.32671        1.49211        6.76391
N         11.13034        0.43901        7.55987
C         10.10207       -0.34138        7.05692
C          9.70839       -1.62919        7.73094
C          9.23465       -1.48473        9.20321
F         10.25935       -0.92186        9.92795
F          8.16725       -0.64753        9.24852
F          8.70776       -2.22890        7.02799
F         10.79106       -2.47806        7.74519
H          5.40693       -3.48322       -3.30896
H          6.31685       -4.64339       -2.32167
H          7.17371       -3.36191       -3.20102
H          5.19436       -2.90030       -0.87456
H          6.02405       -1.62077       -1.75508
H          8.24163       -2.53037       -0.98552
H          7.40753       -3.80764       -0.09901
H          6.23623       -2.07611        1.31118
H          7.05577       -0.78988        0.41789
H          9.27589       -1.62040        1.22418
H          8.46096       -2.94616        2.10457
H         10.04094       -0.56805        3.33836
H          9.35674       -1.99941        4.15601
H          7.78513       -0.63108        5.44826
H          8.14757        0.79874        4.48950
H          9.87351        1.95218        3.80822
H         11.36625        2.71100        4.39781
H          8.53857        3.37461        5.44802
H          9.48274        4.33886        4.27000
H          8.64480        5.16873        7.09012
H          9.69238        6.22801        6.07874
H         12.04335        2.29050        6.91931
H         11.63413        0.25183        8.42531
H          8.97460       -2.46256        9.63734
