50

N          3.64270       -1.51666        0.18400
C          2.61390       -0.48244        0.04060
C          2.70880        0.54149        1.18107
N          4.07878        1.06938        1.24368
C          4.82800        1.10601        2.37261
N          6.05063        0.56215        2.34952
C          7.13143        0.85218        3.30407
C          6.62805        1.73701        4.44409
C          5.16266        1.37835        4.74042
N          4.35999        1.67420        3.50698
C          3.48149        2.85913        3.40563
C          4.21597        4.20466        3.22791
C          5.14474        4.32550        2.00696
C          4.39469        4.31947        0.66725
S          5.53552        3.90035       -0.67613
O          6.47346        4.97390       -0.88478
O          6.00157        2.53616       -0.49791
Cl         4.21350        3.86764       -2.28105
C          4.56048        1.99031        6.00899
C          5.12125        1.37330        7.31011
O          6.51515        1.67617        7.47957
C          4.30839        1.79260        8.52979
H          3.78115       -2.01052       -0.69693
H          3.36380       -2.22016        0.86947
H          1.57497       -0.85719        0.00996
H          2.78641        0.03834       -0.91463
H          2.46425        0.07599        2.14785
H          1.97576        1.34644        1.00540
H          4.63052        0.89946        0.40368
H          6.24563       -0.06671        1.57407
H          7.96557        1.32523        2.76471
H          7.49197       -0.11073        3.69472
H          6.69819        2.80277        4.18418
H          7.24544        1.58393        5.33614
H          5.09937        0.28150        4.85842
H          2.86612        2.90201        4.31065
H          2.78433        2.69013        2.57840
H          4.81078        4.42084        4.12737
H          3.43990        4.98595        3.19111
H          5.88319        3.51030        2.01818
H          5.72364        5.25520        2.08847
H          3.96481        5.29584        0.40931
H          3.61639        3.54800        0.61512
H          3.47539        1.80458        6.00784
H          4.70963        3.08167        6.04462
H          5.08123        0.27375        7.21268
H          6.59488        2.45073        8.05898
H          4.32001        2.88721        8.65507
H          4.72476        1.33518        9.43632
H          3.25980        1.47766        8.44339
