88

C         16.45272        5.66888       -0.21790
C         16.40629        4.18893       -0.60618
C         16.74411        3.24490        0.55353
C         16.68799        1.76177        0.17419
C         16.99650        0.81291        1.33724
C         16.92400       -0.66776        0.95022
C         17.19765       -1.62875        2.11184
C         17.12367       -3.10459        1.70720
C         17.38962       -4.08075        2.85791
C         17.32241       -5.55041        2.42447
C         17.71504       -6.56643        3.51000
C         16.86902       -6.54408        4.79566
C         15.38140       -6.84608        4.57245
C         14.50641       -6.79286        5.83689
C         14.86300       -7.81323        6.92643
C         14.55880       -9.25176        6.47346
N         15.04100      -10.21657        7.54610
C         14.51437       -9.89908        8.93743
C         14.82932       -8.42565        9.25678
N         14.27014       -7.52885        8.23868
C         12.81232       -7.29974        8.29241
C         12.44200       -5.88691        8.77355
O         12.78785       -4.87356        7.84249
C         11.77813       -4.59128        6.86522
C         12.31493       -3.48155        5.97703
O         12.59104       -2.29308        6.70266
C         14.44201       -8.05606       10.69476
C         15.16947       -8.83328       11.81559
C         16.71312       -8.78730       11.71658
C         17.34752       -7.39154       11.71437
C         14.66140       -8.34011       13.17872
H         16.20337        6.31749       -1.06902
H         17.45304        5.95813        0.13751
H         15.73933        5.89257        0.58951
H         17.10476        4.00390       -1.43990
H         15.40344        3.94082       -0.99365
H         16.04808        3.43433        1.39009
H         17.75023        3.48715        0.93941
H         17.39550        1.56912       -0.65159
H         15.68645        1.52770       -0.22827
H         16.29127        1.00931        2.16418
H         18.00058        1.03813        1.73789
H         17.64313       -0.86708        0.13630
H         15.92648       -0.88386        0.52829
H         16.47566       -1.43386        2.92478
H         18.19449       -1.41593        2.53658
H         17.84838       -3.29638        0.89671
H         16.12911       -3.31413        1.27476
H         16.66316       -3.88577        3.66669
H         18.38419       -3.87411        3.29162
H         17.99695       -5.69878        1.56570
H         16.31226       -5.77312        2.03980
H         18.76732       -6.39720        3.79074
H         17.67835       -7.58086        3.07682
H         16.96524       -5.56557        5.29483
H         17.30776       -7.27709        5.49542
H         15.27372       -7.81735        4.05626
H         14.96523       -6.10862        3.86997
H         13.45129       -6.90954        5.54267
H         14.58338       -5.80279        6.30837
H         15.95710       -7.74892        7.08215
H         15.07503       -9.52852        5.54481
H         13.48050       -9.42519        6.35154
H         16.07073      -10.17131        7.57691
H         14.79883      -11.18138        7.28862
H         14.99941      -10.60341        9.62544
H         13.43382      -10.09772        8.92264
H         15.92748       -8.31078        9.17676
H         12.32055       -8.02518        8.96320
H         12.36298       -7.46676        7.30127
H         12.98983       -5.65894        9.69887
H         11.35970       -5.85460        9.00032
H         10.85083       -4.26962        7.37339
H         11.54835       -5.48254        6.24809
H         11.55942       -3.22380        5.22102
H         13.21576       -3.84288        5.44249
H         13.16291       -2.54049        7.44834
H         13.35744       -8.18171       10.84064
H         14.64304       -6.97968       10.80574
H         14.88194       -9.89871       11.74260
H         17.04562       -9.33566       10.81658
H         17.11556       -9.36610       12.56233
H         17.03980       -6.78755       10.84778
H         18.44208       -7.46705       11.68389
H         17.08812       -6.82331       12.61761
H         14.86784       -7.27081       13.32828
H         15.13973       -8.89118       13.99940
H         13.57552       -8.48066       13.27172
