55

C          7.91468       -1.00345       -1.55905
C          6.83371       -1.25959       -1.07762
C          5.54507       -1.53728       -0.45512
C          5.49543       -1.07245        1.01908
C          5.72098        0.44219        1.13540
C          6.01727        0.97435        2.55726
C          4.79540        0.86121        3.51184
S          3.89077        2.46029        3.47848
C          5.22698        3.24629        2.75907
N          6.21569        2.44565        2.43148
C          5.26919        4.71486        2.49009
C          5.30548        5.61883        3.74862
O          4.13677        5.42894        4.56188
C          3.04368        6.21413        4.26892
O          2.98980        6.95045        3.31009
C          1.95698        5.99596        5.29160
S          0.99654        4.48287        4.91179
C          6.50304        5.36407        4.65961
O          6.51253        6.37687        5.67149
C          6.11285        5.99205        6.93200
O          5.82227        4.85486        7.23164
C          6.11398        7.17698        7.86510
S          7.75596        7.37272        8.65414
C          7.23367        0.30782        3.24726
C          8.54709        0.03487        2.47479
C          9.38517        1.29049        2.16349
F          9.60219        2.04336        3.27717
F         10.56520        0.99120        1.62195
F          8.72900        2.11663        1.26071
O          9.33978       -0.88954        3.19265
H          8.85773       -0.80618       -2.02579
H          5.34015       -2.61807       -0.49979
H          4.74455       -1.04787       -1.03501
H          6.26126       -1.63076        1.57726
H          4.52185       -1.36006        1.44320
H          4.84000        0.97741        0.74449
H          6.56168        0.72315        0.48157
H          5.09601        0.68788        4.55330
H          4.10770        0.06567        3.20588
H          7.04298        2.79027        1.93896
H          4.37369        4.99470        1.91406
H          6.14294        4.94484        1.86276
H          5.31571        6.65699        3.38421
H          1.29741        6.86892        5.31951
H          2.39071        5.81888        6.28334
H          0.36476        4.98383        3.82330
H          7.44289        5.46187        4.09712
H          6.44440        4.37248        5.13429
H          5.33768        7.04356        8.62641
H          5.94110        8.10897        7.31448
H          7.66348        6.27013        9.43472
H          6.90609       -0.68908        3.57529
H          7.46238        0.87318        4.16461
H          8.34754       -0.44095        1.50170
H          9.59003       -0.51257        4.05441
