33

O          1.88161       -1.25160       -3.03952
C          1.92826       -0.31132       -1.95900
C          3.03550       -0.75770       -1.01237
N          4.40088       -0.62275       -1.53888
C          5.07189       -1.54961       -2.25719
N          4.39432       -2.51299       -2.89288
C          4.99470       -3.69272       -3.50422
C          3.88688       -4.46100       -4.25427
C          4.43293       -5.78514       -4.82272
F          5.57603       -5.58073       -5.52385
F          4.71829       -6.64991       -3.80621
F          3.53974       -6.37758       -5.62895
O          2.74366       -4.67744       -3.45461
N          6.41728       -1.51710       -2.30509
C          7.28911       -0.58720       -1.57441
C          7.52862        0.73861       -2.30011
H          1.11289       -1.07684       -3.60365
H          0.97845       -0.30562       -1.39860
H          2.12333        0.70931       -2.33092
H          2.87087       -1.80631       -0.72193
H          2.98768       -0.15347       -0.09700
H          4.92301        0.19743       -1.25578
H          3.38003       -2.37100       -3.00258
H          5.45422       -4.33381       -2.73309
H          5.77368       -3.41794       -4.23474
H          3.54689       -3.86262       -5.11424
H          2.92460       -5.39518       -2.82196
H          6.85730       -2.08706       -3.01975
H          8.23931       -1.11447       -1.41631
H          6.86028       -0.43414       -0.57255
H          8.00298        0.57296       -3.27656
H          8.19752        1.37311       -1.70411
H          6.59756        1.29775       -2.47203
