98

C          9.43261        5.28000       -8.62083
C          8.96263        3.98471       -7.95350
C         10.11619        3.08687       -7.49207
C          9.65622        1.77307       -6.85183
C         10.81045        0.87813       -6.38855
C         10.35082       -0.45704       -5.79378
C         11.50679       -1.36828       -5.36778
C         11.04909       -2.73408       -4.84497
C         12.20958       -3.66642       -4.47782
C         11.74745       -5.07275       -4.07111
C         12.87766       -6.10437       -3.90643
C         13.85011       -5.83699       -2.75713
O         14.98044       -6.70020       -2.76521
C         14.74128       -7.90473       -2.06260
N         14.55282       -7.60568       -0.64015
C         13.62394       -6.65423       -0.39043
N         13.15124       -6.39763        0.83723
C         12.87091       -7.37770        1.88189
C         11.53703       -6.89919        2.51196
O         11.02903       -5.84574        2.10922
N         11.03098       -7.66490        3.49310
C          9.78043       -7.34193        4.19633
C          8.52518       -7.89439        3.51078
C          8.47589       -9.42322        3.40773
C          7.17891       -9.93632        2.77704
N         13.16574       -5.95484       -1.44368
C         15.53679       -8.05202        0.33033
O         15.21629       -9.36667        0.71343
C         16.29207      -10.02644        1.41474
C         15.90130      -11.47604        1.64353
C         17.02201      -12.29212        2.29978
C         16.64530      -13.76355        2.50699
C         17.78195      -14.61007        3.08852
C         17.40911      -16.08497        3.27019
C         18.56176      -16.95603        3.77953
C         18.18241      -18.43091        3.95278
C         19.34613      -19.30918        4.41891
H          8.58402        5.91149       -8.91842
H         10.02306        5.07122       -9.52560
H         10.06543        5.87280       -7.94326
H          8.32329        3.42118       -8.65413
H          8.32190        4.22565       -7.08836
H         10.74704        3.64320       -6.77608
H         10.76834        2.86209       -8.35483
H          9.03345        1.21612       -7.57388
H          8.99670        1.99428       -5.99419
H         11.42083        1.42110       -5.64556
H         11.48196        0.68169       -7.24296
H          9.72636       -0.98736       -6.53425
H          9.69343       -0.26670       -4.92712
H         12.11202       -0.85989       -4.59652
H         12.18210       -1.52106       -6.22802
H         10.42699       -3.22483       -5.61365
H         10.39211       -2.59525       -3.96835
H         12.80515       -3.19990       -3.67317
H         12.88944       -3.75340       -5.34305
H         11.06641       -5.45859       -4.84545
H         11.12446       -5.01962       -3.15880
H         13.49276       -6.12117       -4.81922
H         12.45179       -7.11293       -3.78495
H         14.27536       -4.82375       -2.83286
H         15.62749       -8.53633       -2.17610
H         13.85363       -8.43530       -2.44419
H         12.45595       -5.63293        0.93878
H         13.65694       -7.38878        2.65271
H         12.78815       -8.39360        1.46943
H         11.50246       -8.53390        3.72173
H          9.72668       -6.24785        4.26632
H          9.87552       -7.74236        5.21584
H          8.43684       -7.44249        2.50947
H          7.65699       -7.53455        4.08654
H          8.59363       -9.86034        4.41431
H          9.33346       -9.78317        2.81362
H          6.30308       -9.63997        3.37184
H          7.17450      -11.03187        2.70487
H          7.04008       -9.53426        1.76300
H         12.30782       -5.42320       -1.32534
H         15.54346       -7.34948        1.18344
H         16.53281       -8.01245       -0.15176
H         16.48764       -9.50671        2.37189
H         17.21318       -9.96077        0.80503
H         15.63453      -11.92255        0.67211
H         14.99284      -11.51142        2.26708
H         17.29509      -11.84188        3.26961
H         17.92824      -12.23651        1.67214
H         16.32947      -14.19532        1.54130
H         15.76381      -13.82618        3.16848
H         18.09635      -14.18778        4.05901
H         18.66345      -14.53628        2.42747
H         17.04982      -16.48891        2.30692
H         16.55489      -16.16301        3.96541
H         18.92704      -16.55750        4.74275
H         19.41287      -16.87901        3.08000
H         17.79200      -18.81689        2.99544
H         17.34875      -18.50915        4.67085
H         20.17830      -19.28431        3.69981
H         19.03766      -20.35708        4.53318
H         19.73888      -18.97189        5.38986
