93

C          0.53131       -0.26980        0.24099
C          2.05727       -0.31682        0.13279
C          2.66710        0.96450       -0.44601
C          4.19513        0.92776       -0.54725
C          4.80680        2.21665       -1.10431
C          6.33589        2.18538       -1.19433
C          6.94489        3.49003       -1.71703
C          8.47499        3.47220       -1.79599
C          9.07359        4.79244       -2.29099
C         10.60391        4.79321       -2.37143
C         11.18096        6.12663       -2.85689
C         12.70985        6.15045       -2.95766
C         13.25588        7.49504       -3.44845
C         14.78226        7.54795       -3.57447
C         15.28815        8.90199       -4.08225
C         16.81030        8.99373       -4.23189
C         17.26254       10.36504       -4.74695
C         18.78661       10.49451       -4.87721
C         19.27604       11.78654       -5.53417
C         18.80179       13.03430       -4.78209
N         19.16478       14.27645       -5.57316
C         18.65665       14.24151       -7.02693
C         19.27048       12.95423       -7.60890
O         18.79456       11.82303       -6.88194
C         18.99074       12.70819       -9.08240
C         20.02060       11.73188       -9.64997
O         21.13415       11.57568       -9.19033
O         19.53287       11.11134      -10.73592
C         20.45132       10.21021      -11.41274
C         17.12756       14.35713       -7.03840
C         16.56717       15.03499       -8.29759
C         15.04616       15.19516       -8.22777
C         14.45774       15.88693       -9.46056
N         13.01658       16.07639       -9.29216
H          0.12706       -1.20223        0.65908
H          0.06510       -0.11886       -0.74434
H          0.20175        0.55531        0.89024
H          2.35665       -1.17501       -0.49282
H          2.49183       -0.50561        1.12924
H          2.36351        1.82470        0.17710
H          2.23799        1.15288       -1.44631
H          4.49866        0.07525       -1.18043
H          4.62073        0.72605        0.45176
H          4.49803        3.06772       -0.47155
H          4.38584        2.41901       -2.10513
H          6.64735        1.34877       -1.84449
H          6.75453        1.96271       -0.19690
H          6.62498        4.32442       -1.06783
H          6.53056        3.71211       -2.71645
H          8.79803        2.65096       -2.45985
H          8.88862        3.23453       -0.80002
H          8.74512        5.61079       -1.62591
H          8.65780        5.03014       -3.28622
H         10.93594        3.98304       -3.04431
H         11.02320        4.55168       -1.37889
H         10.84963        6.93307       -2.17875
H         10.74967        6.36976       -3.84422
H         13.04515        5.34815       -3.63819
H         13.14748        5.91319       -1.97217
H         12.92083        8.29397       -2.76319
H         12.80426        7.73205       -4.42816
H         15.12321        6.74931       -4.25614
H         15.24128        7.32699       -2.59507
H         14.94365        9.69622       -3.39591
H         14.81611        9.12119       -5.05649
H         17.16456        8.20915       -4.92204
H         17.29186        8.78596       -3.26071
H         16.86926       11.13393       -4.05847
H         16.79622       10.55564       -5.72709
H         19.18349        9.66801       -5.48595
H         19.26714       10.40512       -3.88890
H         20.38619       11.78533       -5.56020
H         19.27481       13.12136       -3.79535
H         17.71283       13.04440       -4.66327
H         20.19046       14.37458       -5.58963
H         18.78714       15.10988       -5.10423
H         19.11683       15.12286       -7.50134
H         20.37537       13.01270       -7.49885
H         19.07839       13.64272       -9.65904
H         17.97534       12.32105       -9.23667
H         19.86036        9.74155      -12.20385
H         20.83276        9.45996      -10.71046
H         21.28895       10.77688      -11.83695
H         16.80053       14.95210       -6.16606
H         16.68341       13.35807       -6.91307
H         16.83341       14.45531       -9.19417
H         17.03848       16.02578       -8.41818
H         14.76192       15.77772       -7.33635
H         14.57798       14.20190       -8.10938
H         14.74189       15.31534      -10.36911
H         14.91389       16.88464       -9.56598
H         12.51736       15.18968       -9.37668
H         12.64291       16.69069      -10.01486
