72

C          3.31334       -2.83965        0.18229
C          4.36495       -3.81387        0.71742
C          5.63060       -3.11602        1.22677
C          6.68824       -4.08488        1.76510
C          7.96075       -3.38677        2.25570
C          9.02209       -4.36221        2.77729
C         10.32195       -3.69294        3.20196
O         10.12530       -2.79140        4.33127
C         10.44993       -3.27037        5.59677
N         11.86584       -3.01230        5.97290
C         12.78804       -4.10170        6.43012
C         14.09381       -3.32463        6.67967
N         13.59731       -1.97013        6.91889
C         12.36428       -1.81606        6.35789
N         11.82087       -0.60148        6.26647
C         10.48004       -0.12660        5.85780
C         10.57589        1.36163        5.51909
C          9.21082        2.02245        5.30182
C          9.33158        3.52494        5.02100
C          7.98266        4.23624        4.87633
C          8.12069        5.74543        4.65219
C          6.77925        6.47610        4.53410
C          6.93508        7.98742        4.35345
C         12.93990       -5.24406        5.42311
C         13.94081       -6.31367        5.87624
C         13.67305       -6.97359        7.21920
Br        11.84393       -7.64734        7.43055
Br        14.05560       -7.67019        4.44905
H          2.42049       -3.36968       -0.17577
H          3.70739       -2.24788       -0.65742
H          2.98992       -2.13381        0.96202
H          4.64172       -4.53017       -0.07429
H          3.93013       -4.41610        1.53279
H          5.35582       -2.39636        2.01836
H          6.06723       -2.51535        0.40928
H          6.95290       -4.81006        0.97592
H          6.25462       -4.67828        2.58901
H          7.70254       -2.66423        3.04726
H          8.39327       -2.79605        1.42898
H          9.27765       -5.08974        1.98772
H          8.61855       -4.95558        3.61595
H         10.71313       -3.05815        2.39282
H         11.09413       -4.43638        3.45168
H         10.30154       -4.35625        5.69953
H          9.79590       -2.75980        6.31752
H         12.38986       -4.49404        7.38222
H         14.74787       -3.35695        5.79120
H         14.64920       -3.69702        7.54867
H         14.24268       -1.18682        6.95114
H         12.40517        0.14113        6.64467
H          9.77444       -0.27746        6.69048
H         10.13918       -0.71213        4.99504
H         11.20690        1.49256        4.62513
H         11.08765        1.88445        6.34896
H          8.58466        1.86761        6.19719
H          8.68591        1.52847        4.46714
H          9.92861        3.67945        4.10576
H          9.90125        3.99882        5.83965
H          7.37859        4.05777        5.78303
H          7.41755        3.78937        4.04010
H          8.71673        5.92830        3.74092
H          8.69871        6.18388        5.48495
H          6.17657        6.27258        5.43527
H          6.21014        6.05771        3.68708
H          7.47012        8.43605        5.20364
H          5.95969        8.48590        4.27423
H          7.50450        8.22362        3.44245
H         13.27181       -4.83744        4.45723
H         11.97145       -5.74005        5.26816
H         14.96246       -5.90629        5.91546
H         13.81676       -6.25983        8.04158
H         14.33190       -7.83237        7.37562
