59

Br         1.99793       -1.72569        1.25749
C          3.58619       -0.83184        0.55496
C          3.82091        0.48152        1.29204
C          5.06755        1.19844        0.73917
N          5.27644        2.50394        1.38319
C          4.86857        3.65610        0.93376
C          4.12647        3.83424       -0.35271
O          3.86205        5.19333       -0.52952
C          3.00300        5.45476       -1.66647
C          2.77093        6.95069       -1.76441
C          1.76629        7.31256       -2.86631
C          1.53949        8.82286       -2.99666
C          0.50865        9.19180       -4.06959
C          0.29614       10.70125       -4.20751
C          5.20132        4.76096        1.86698
C          6.10187        4.11420        2.95358
C          5.92178        2.59598        2.71743
C          7.56792        4.56590        2.84394
C          8.45825        4.04941        3.98111
C          9.91519        4.50918        3.83590
C         10.78843        3.96049        4.96797
S         12.51129        4.46183        4.71215
O         13.02616        3.79959        3.53563
O         12.62134        5.89144        4.88403
Cl        13.39492        3.56225        6.37024
H          3.40126       -0.68143       -0.51494
H          4.41504       -1.53710        0.68390
H          3.94493        0.28348        2.36652
H          2.93968        1.13131        1.18254
H          4.98234        1.35969       -0.34401
H          5.97498        0.60391        0.91548
H          3.19169        3.23047       -0.31168
H          4.72926        3.40641       -1.18667
H          2.04934        4.91192       -1.52166
H          3.48376        5.06149       -2.58166
H          3.73388        7.45287       -1.94942
H          2.40376        7.31444       -0.79111
H          0.80220        6.81604       -2.66052
H          2.11504        6.91268       -3.83415
H          2.49926        9.31827       -3.22499
H          1.21360        9.22876       -2.02288
H         -0.45155        8.70330       -3.83224
H          0.82873        8.77387       -5.03896
H         -0.05830       11.14363       -3.26471
H         -0.44828       10.93148       -4.98125
H          1.22985       11.21357       -4.48267
H          4.26006        5.18243        2.25999
H          5.67484        5.59207        1.32209
H          5.72368        4.37417        3.95121
H          5.26511        2.11037        3.45392
H          6.86805        2.03759        2.68666
H          7.58998        5.66745        2.83979
H          7.97941        4.24960        1.86827
H          8.43373        2.94649        4.01878
H          8.05149        4.39642        4.94584
H          9.96315        5.60862        3.83546
H         10.31744        4.17023        2.86860
H         10.80315        2.86236        4.99813
H         10.50448        4.35145        5.95433
