50

C          3.26752        0.54118        1.45236
C          3.07935        0.85950       -0.03324
C          2.76860       -0.37132       -0.91474
C          2.20413        0.05106       -2.29625
C          0.66432        0.03144       -2.46061
C          0.27557        0.72921       -3.77675
C         -1.22890        0.87412       -4.05825
O         -2.04801        0.55617       -3.19836
C         -1.65844        1.41161       -5.37565
C         -3.04222        1.54119       -5.60830
C         -3.50758        2.03153       -6.82332
C         -2.59854        2.40035       -7.82247
C         -1.22282        2.27876       -7.60319
C         -0.75251        1.78639       -6.38673
N          0.03939        0.69543       -1.28702
C         -0.69220       -0.14176       -0.55570
N         -1.28829        0.17060        0.60201
N         -0.74622       -1.35740       -1.11075
C          0.00149       -1.41115       -2.35865
N          0.95811       -2.53372       -2.33173
N          0.36860       -3.63285       -1.62302
N          1.34654       -2.90875       -3.64212
C          4.00134       -1.26805       -1.09127
H          3.46263        1.45369        2.03082
H          4.11196       -0.13891        1.62751
H          2.36819        0.06511        1.87355
H          3.98072        1.35926       -0.42797
H          2.26633        1.59737       -0.13391
H          2.00651       -0.97359       -0.39293
H          2.63251       -0.57127       -3.09411
H          2.54251        1.07579       -2.52498
H          0.75380        0.17738       -4.60175
H          0.73255        1.73291       -3.80725
H         -3.73237        1.24768       -4.81743
H         -4.57956        2.12707       -6.99780
H         -2.96425        2.78354       -8.77579
H         -0.51843        2.56919       -8.38266
H          0.32388        1.70155       -6.23454
H          0.01977        1.70171       -1.17325
H         -1.22435        1.10571        0.98321
H         -1.99684       -0.44215        0.98625
H         -0.82499       -2.24794       -0.61028
H         -0.70915       -1.55389       -3.19911
H          1.14044       -4.17589       -1.23387
H         -0.12040       -4.24827       -2.28596
H          2.24918       -2.49712       -3.87471
H          0.65021       -2.64635       -4.35139
H          4.79408       -0.74694       -1.64928
H          3.74302       -2.18519       -1.63827
H          4.42411       -1.57130       -0.12493
