42

C          0.85485        0.91485       -0.66542
C          2.19823        1.62773       -0.83147
C          3.22982        0.79827       -1.60733
C          4.55722        1.54313       -1.80088
C          5.62369        0.68307       -2.45398
O          6.82983        1.47726       -2.60265
C          7.91210        0.77384       -3.16057
C          9.06502        1.76261       -3.32604
N          8.69960        2.87886       -4.23134
C          8.59235        2.86002       -5.58060
C          8.95097        1.72296       -6.47203
C          9.07275        2.13196       -7.94427
N          8.12271        4.05649       -5.99537
N          7.94046        4.81628       -4.94060
N          8.28117        4.12807       -3.87249
C          8.25196        4.77554       -2.49418
C          6.95387        4.41845       -1.70181
F          6.96528        5.16844       -0.57629
F          5.89015        4.76332       -2.47401
F          9.34475        4.34114       -1.83061
F          8.34402        6.07914       -2.71523
H          0.15336        1.52153       -0.07777
H          0.97288       -0.04912       -0.14906
H          0.38388        0.71493       -1.63904
H          2.61208        1.87405        0.16089
H          2.04526        2.59201       -1.34486
H          2.81540        0.52022       -2.59141
H          3.40961       -0.14940       -1.07088
H          4.92726        1.88525       -0.81942
H          4.39122        2.44271       -2.41486
H          5.30411        0.33323       -3.45280
H          5.85439       -0.20353       -1.83675
H          7.63820        0.31452       -4.12965
H          8.27323       -0.03903       -2.50065
H          9.94380        1.27894       -3.77222
H          9.36241        2.19028       -2.36488
H          8.17944        0.94252       -6.35354
H          9.88965        1.27266       -6.10858
H          8.12691        2.52904       -8.33021
H          9.34602        1.25254       -8.53822
H          9.84648        2.89639       -8.08503
H          6.91179        3.34615       -1.46085
