49

F          1.94935       -0.68233       -0.69927
C          3.29189       -0.67504       -0.53131
C          3.72009       -1.56999        0.62967
O          3.13924       -1.06227        1.81502
C          3.34067       -1.89212        2.94024
C          2.67942       -1.18727        4.12531
C          2.61844       -1.96011        5.45488
C          4.00261       -2.40406        5.96918
N          4.10979       -3.76347        5.41503
C          2.96720       -4.30498        5.05799
C          1.85761       -3.32565        5.38667
C          0.54016       -3.37167        4.60954
C         -0.52146       -2.45635        5.22060
O         -1.65990       -2.56965        4.39019
C         -2.71690       -1.69774        4.74531
C         -3.73540       -1.71162        3.60814
F         -3.19401       -1.26910        2.44845
F         -4.22749       -2.95187        3.38534
F         -4.77129       -0.89748        3.92579
C          2.90735       -5.66944        4.55926
C          3.76777       -6.64692        5.11356
C          3.76005       -7.94720        4.62213
C          2.91638       -8.28706        3.55761
C          2.06826       -7.32669        2.99673
C          2.04552       -6.02846        3.49939
F          3.86111       -1.13285       -1.67450
F          3.68060        0.60622       -0.35094
H          4.82427       -1.56748        0.67620
H          3.37192       -2.59550        0.40741
H          4.42549       -2.05477        3.11181
H          2.89444       -2.89303        2.75235
H          1.66148       -0.90689        3.81692
H          3.20673       -0.23735        4.30138
H          2.14476       -1.31105        6.20193
H          4.04482       -2.45901        7.06901
H          4.83913       -1.78614        5.61968
H          4.99749       -4.25785        5.32829
H          1.61518       -3.60919        6.43589
H          0.13521       -4.39305        4.61732
H          0.68064       -3.08467        3.55743
H         -0.18169       -1.40251        5.25936
H         -0.75074       -2.76898        6.26016
H         -2.36668       -0.65706        4.86823
H         -3.22644       -2.01805        5.67171
H          4.39945       -6.40192        5.96976
H          4.40482       -8.70090        5.07372
H          2.91686       -9.30560        3.16858
H          1.41916       -7.59101        2.16215
H          1.39853       -5.28702        3.03598
