78

C          1.95074       -0.98804        2.17125
O          3.25059       -0.86260        1.51538
C          3.58616       -1.82782        0.67206
O          2.88728       -2.81747        0.44261
C          4.90762       -1.56420       -0.02886
C          5.76466       -2.82098       -0.28499
N          4.90238       -3.97030       -0.80046
C          5.07206       -4.11777       -2.32309
C          5.98622       -2.90928       -2.69636
C          6.78955       -2.64530       -1.40597
C          6.82592       -3.08289       -3.96445
C          7.71949       -1.88576       -4.29802
C          8.19870       -1.97640       -5.75594
O          7.50540       -2.49717       -6.62731
N          9.42139       -1.39981       -5.98068
C         10.14057       -1.24709       -7.18799
C         11.42151       -0.67718       -7.09454
C         12.20223       -0.50890       -8.23535
C         11.71978       -0.91324       -9.48384
C         10.44350       -1.47312       -9.57450
C          9.64398       -1.64089       -8.44201
C          5.59564       -5.53518       -2.59790
C          5.37263       -6.02609       -4.03684
C          6.13390       -7.34085       -4.31975
S          7.02176       -7.33876       -5.89983
C          8.54976       -6.51815       -5.46249
S          9.01283       -6.13797       -3.90159
N          9.32037       -6.28033       -6.56095
C          8.79956       -6.39795       -7.90801
C          9.22841       -7.45238       -8.72003
C          8.76182       -7.53937      -10.03262
C          7.87975       -6.57490      -10.52851
C          7.46534       -5.51803       -9.71173
C          7.92507       -5.41998       -8.39820
C         10.70747       -5.89247       -6.45930
C         11.11766       -4.69285       -7.04479
C         12.46642       -4.33381       -7.00854
C         13.39861       -5.17375       -6.39449
C         12.98048       -6.37916       -5.82009
C         11.63570       -6.74581       -5.85304
H          1.86755       -0.09758        2.79838
H          1.92645       -1.90055        2.77799
H          1.15461       -1.01727        1.41853
H          5.49836       -0.84325        0.54856
H          4.65456       -1.07278       -0.98302
H          6.21133       -3.15428        0.66105
H          3.91159       -3.76600       -0.48166
H          5.19384       -4.84726       -0.35558
H          4.06973       -3.99661       -2.75778
H          5.31703       -2.04553       -2.86129
H          7.24202       -1.64629       -1.38259
H          7.60335       -3.37940       -1.30040
H          6.16202       -3.23014       -4.82795
H          7.45827       -3.98266       -3.88906
H          8.57890       -1.81713       -3.61323
H          7.15696       -0.93903       -4.20670
H          9.90549       -1.05367       -5.15770
H         11.80585       -0.36618       -6.11998
H         13.19311       -0.06234       -8.14686
H         12.33242       -0.78767      -10.37628
H         10.05515       -1.78924      -10.54329
H          8.65189       -2.07597       -8.51839
H          5.08167       -6.23165       -1.91070
H          6.67349       -5.59468       -2.37173
H          5.71365       -5.26654       -4.74820
H          4.29631       -6.16018       -4.22444
H          5.45685       -8.20263       -4.39265
H          6.88369       -7.54762       -3.54151
H          9.92238       -8.19260       -8.32090
H          9.08942       -8.36153      -10.66936
H          7.51858       -6.64494      -11.55499
H          6.78462       -4.75944      -10.09997
H          7.62028       -4.59261       -7.75595
H         10.38961       -4.04938       -7.53520
H         12.78077       -3.39707       -7.46856
H         14.45308       -4.89669       -6.37136
H         13.70676       -7.04336       -5.35053
H         11.30242       -7.68420       -5.41081
