52

C          2.61896        0.41108        1.33879
O          2.28009        0.02966       -0.00467
C          2.88872       -1.05393       -0.54844
C          3.86136       -1.81882        0.11157
C          4.42332       -2.93400       -0.50922
C          4.02780       -3.31322       -1.79445
C          3.05765       -2.56453       -2.45180
C          2.47018       -1.43103       -1.85556
C          1.44614       -0.68242       -2.59556
N          0.54799       -1.42597       -3.31527
C         -0.43582       -0.91172       -4.10434
C         -1.31119       -1.89574       -4.84266
C         -2.64513       -1.32656       -5.27464
C         -3.63995       -1.06073       -4.32109
C         -4.86077       -0.52342       -4.72586
C         -5.09828       -0.25267       -6.07670
C         -4.12203       -0.51424       -7.04739
C         -2.89448       -1.05099       -6.62230
C         -4.37144       -0.23025       -8.50590
C         -0.54771        0.46257       -4.18449
C          0.33124        1.30315       -3.46524
C          1.32112        0.70129       -2.66453
C          0.21479        2.76669       -3.56110
C          1.35408        3.58920       -3.45333
C          1.24004        4.97282       -3.56157
C         -0.01333        5.56022       -3.76118
C         -1.15277        4.75577       -3.86042
C         -1.04155        3.37067       -3.77057
H          1.99505        1.28315        1.55650
H          3.68052        0.68904        1.41753
H          2.38481       -0.39521        2.04980
H          4.18236       -1.54663        1.11478
H          5.18497       -3.50795        0.01894
H          4.48334       -4.17209       -2.28491
H          2.78666       -2.83076       -3.47609
H          0.61284       -2.44066       -3.22544
H         -1.46428       -2.77954       -4.19934
H         -0.75403       -2.25374       -5.72539
H         -3.46391       -1.28171       -3.26603
H         -5.63840       -0.32568       -3.98726
H         -6.06223        0.15665       -6.38394
H         -2.12268       -1.26872       -7.36591
H         -5.42376        0.01579       -8.69235
H         -4.10860       -1.09481       -9.13148
H         -3.76282        0.61774       -8.85467
H         -1.32065        0.87660       -4.82869
H          2.00254        1.30837       -2.07564
H          2.34101        3.14231       -3.32665
H          2.13239        5.59582       -3.49850
H         -0.10134        6.64391       -3.84226
H         -2.13233        5.21085       -4.00776
H         -1.94119        2.75640       -3.82832
