43

O          5.14494       -0.84660       -0.16727
C          4.54534       -1.27779       -1.39538
C          3.03586       -1.11905       -1.21668
C          2.46719       -2.09993       -0.16210
C          0.94128       -2.25155       -0.23514
N          0.47680       -3.17601        0.82681
C         -0.36796       -2.69381        1.68482
C         -0.71032       -1.29105        1.34449
C          0.08248       -0.97646        0.04835
C         -0.81834       -0.66307       -1.15109
C         -1.57317        0.69053       -1.11532
F         -2.47206        0.68901       -0.07976
F         -0.67765        1.69308       -0.89979
F         -0.05595       -0.64577       -2.29550
F         -1.75744       -1.66012       -1.31630
C         -0.90463       -3.46126        2.85484
C         -1.71598       -4.67287        2.35706
O         -2.65723       -4.17849        1.41343
C          0.22048       -3.87877        3.83605
C          0.98723       -2.69849        4.43512
O          2.72578        0.23061       -0.87068
H          6.08408       -0.66182       -0.31755
H          4.80208       -2.32758       -1.62424
H          4.86614       -0.64487       -2.23855
H          2.55689       -1.31301       -2.19016
H          2.76994       -1.76281        0.84144
H          2.91837       -3.09353       -0.32189
H          0.66686       -2.70180       -1.20165
H          0.83528       -4.13093        0.88194
H         -0.45817       -0.62916        2.18829
H         -1.80371       -1.22136        1.22868
H          0.75093       -0.11564        0.17452
H         -2.10969        0.86661       -2.06085
H         -1.60218       -2.78898        3.37729
H         -2.20282       -5.14432        3.22707
H         -1.03983       -5.42538        1.90383
H         -3.27429       -4.88502        1.16714
H          0.91497       -4.57066        3.33028
H         -0.25484       -4.46251        4.63818
H          1.53073       -2.12252        3.67080
H          1.73030       -3.05196        5.16042
H          0.31326       -2.00921        4.96288
H          3.46300        0.53462       -0.30698
