35

O          2.85848       -0.15873        1.43730
C          2.26117       -0.22280        0.33514
N          1.03163        0.27952        0.12204
C          0.12445        0.90508        1.02717
C          0.50246        1.38722        2.28852
C         -0.46416        1.99274        3.09390
C         -1.78583        2.12101        2.66096
C         -2.15070        1.64294        1.39906
C         -1.19957        1.03763        0.58155
C          2.90922       -0.95280       -0.84610
C          4.44049       -0.86220       -0.82470
N          4.98531       -1.23600        0.53285
C          4.98695       -2.72258        0.81976
C          5.04548       -2.96338        2.30677
O          6.29883       -2.64162        2.94322
C          5.89193       -4.02171        2.88232
N          6.24550       -0.56479        0.74550
H          0.65485        0.14578       -0.81345
H          1.52817        1.29512        2.63236
H         -0.17243        2.37112        4.07372
H         -2.52920        2.59375        3.30242
H         -3.17829        1.73861        1.04884
H         -1.48639        0.66198       -0.40382
H          2.56419       -0.54796       -1.80745
H          2.57236       -2.00231       -0.81888
H          4.77499        0.17044       -0.98407
H          4.89698       -1.50669       -1.58867
H          4.23229       -0.75735        1.17203
H          5.84422       -3.16234        0.29073
H          4.05832       -3.14710        0.41218
H          4.16118       -2.63917        2.86857
H          5.60417       -4.45943        3.84092
H          6.49367       -4.65591        2.22469
H          6.92529       -0.96833        0.09047
H          6.56394       -0.82633        1.68577
