92

C          1.01722       -0.18300        1.31005
C          2.46774        0.02832        0.87159
C          3.10643       -1.22578        0.26679
C          4.56730       -1.03159       -0.14985
C          5.19593       -2.27742       -0.78091
C          6.67323       -2.10560       -1.14852
C          7.27768       -3.34056       -1.82360
C          8.77273       -3.21144       -2.13375
C          9.34303       -4.43460       -2.85874
C         10.85219       -4.36184       -3.11356
C         11.38368       -5.56876       -3.89398
C         12.90085       -5.54592       -4.11226
C         13.38759       -6.73005       -4.95645
C         14.90629       -6.72556       -5.18689
C         15.29785       -7.88413       -6.10807
N         16.71648       -7.85776       -6.53288
N         17.03709       -7.44121       -7.73396
N         18.34879       -7.37497       -7.81819
C         18.88193       -7.75449       -6.63791
N         17.85084       -8.08168       -5.80507
C         17.88802       -8.56305       -4.39636
C         16.93953       -9.71090       -4.01937
C         16.92401      -10.95724       -4.91697
C         18.16739      -11.85855       -4.79396
N         18.03442      -13.08923       -5.54757
C         17.62580      -14.30306       -5.02711
C         17.51451      -15.20283       -6.06953
C         17.85852      -14.51290       -7.26619
C         18.16970      -13.21206       -6.91826
C         20.37092       -7.70656       -6.36151
C         20.95097       -9.16620       -6.21139
C         20.65860      -10.06181       -7.42506
C         22.45354       -9.18528       -5.89050
C         21.02769       -6.97884       -7.58196
O         20.59160       -5.63674       -7.72655
C         20.63543       -6.84098       -5.10421
H          0.58604        0.73379        1.73520
H          0.94370       -0.97093        2.07442
H          0.38470       -0.48618        0.46240
H          3.06912        0.35983        1.73497
H          2.51600        0.84909        0.13629
H          2.51537       -1.54764       -0.60898
H          3.04218       -2.05388        0.99474
H          5.15900       -0.73129        0.73296
H          4.63584       -0.18925       -0.86048
H          4.62477       -2.55371       -1.68475
H          5.09269       -3.12968       -0.08638
H          7.24893       -1.86719       -0.23688
H          6.78662       -1.23297       -1.81536
H          6.72783       -3.54735       -2.75858
H          7.11824       -4.22249       -1.17844
H          9.32722       -3.04973       -1.19273
H          8.94527       -2.30984       -2.74714
H          8.81698       -4.56185       -3.82108
H          9.12030       -5.34224       -2.27054
H         11.38236       -4.28368       -2.14847
H         11.08844       -3.43682       -3.66769
H         10.87760       -5.61592       -4.87362
H         11.10745       -6.49687       -3.36408
H         13.41434       -5.54995       -3.13557
H         13.18784       -4.60333       -4.60870
H         12.87508       -6.71146       -5.93304
H         13.09069       -7.67520       -4.47029
H         15.43063       -6.79819       -4.22053
H         15.21349       -5.77745       -5.65501
H         14.76654       -7.81505       -7.06618
H         15.08506       -8.86714       -5.67370
H         17.70550       -7.68916       -3.75461
H         18.93016       -8.86468       -4.25649
H         15.91998       -9.32343       -3.89494
H         17.25240       -9.99487       -3.00102
H         16.77903      -10.68826       -5.97578
H         16.04703      -11.56056       -4.64040
H         18.32891      -12.12425       -3.73855
H         19.07373      -11.33411       -5.13632
H         17.46889      -14.42391       -3.95959
H         17.23359      -16.24716       -5.97828
H         17.88951      -14.92586       -8.26943
H         18.48952      -12.37148       -7.52628
H         20.44401       -9.61221       -5.33644
H         21.23387       -9.75057       -8.30737
H         19.59620      -10.06712       -7.71007
H         20.94603      -11.09814       -7.20356
H         23.05817       -8.80275       -6.72338
H         22.76779      -10.22314       -5.71708
H         22.70527       -8.61328       -4.98920
H         20.86936       -7.55239       -8.50583
H         22.10701       -6.93903       -7.38464
H         19.82909       -5.63848       -8.32767
H         20.36423       -7.34513       -4.16816
H         20.10321       -5.88425       -5.16929
H         21.70487       -6.60609       -5.05020
