68

C          3.33882       -6.25866        5.65236
C          3.21213       -5.01230        4.77336
C          4.18570       -3.89691        5.17376
C          4.04023       -2.65123        4.29260
N          4.95038       -1.57413        4.68932
C          6.04190       -1.21777        3.98553
O          6.37698       -1.74622        2.91385
C          6.87629       -0.05547        4.55455
N          8.31088       -0.35705        4.64282
C          9.09979       -0.13035        3.55533
N         10.40665        0.15216        3.73192
C         11.57350       -0.01348        2.80391
C         11.50063       -1.37229        2.02336
C         12.76936       -1.63387        1.19376
C         11.19241       -2.57363        2.92600
C         11.64632        1.19460        1.84439
O         10.57762        1.12953        0.88887
C         12.80318        0.07057        3.72503
N          8.54599       -0.16801        2.34398
C          8.86588       -0.68566        5.97202
C          8.10104       -1.78040        6.72524
C          8.15214       -3.18939        6.11843
C          9.53464       -3.87067        6.20084
N         10.16997       -3.71856        7.50079
C          9.69561       -4.22357        8.69321
C         10.46152       -3.69992        9.71981
C         11.43054       -2.84063        9.13258
C         11.22322       -2.86571        7.76531
H          2.63212       -7.03819        5.33950
H          3.13143       -6.02831        6.70775
H          4.35032       -6.68754        5.59746
H          2.17929       -4.62894        4.82257
H          3.38600       -5.28317        3.71886
H          5.22370       -4.26205        5.10541
H          4.01745       -3.62209        6.23004
H          3.01068       -2.26386        4.33408
H          4.26935       -2.88400        3.24452
H          4.77518       -1.10851        5.57428
H          6.53233        0.25661        5.54959
H          6.73860        0.79879        3.87385
H         10.66456        0.43970        4.66932
H         10.67497       -1.28347        1.30349
H         13.64717       -1.83226        1.82447
H         13.01224       -0.80510        0.51638
H         12.61428       -2.52167        0.56745
H         11.94791       -2.71001        3.71389
H         11.18703       -3.49274        2.32592
H         10.20543       -2.49918        3.40050
H         12.61875        1.18594        1.32781
H         11.57891        2.12047        2.44010
H         10.63481        1.89364        0.29517
H         12.82263       -0.76100        4.44098
H         12.80253        1.01398        4.29111
H         13.73236        0.03828        3.14670
H          7.69178       -0.74777        2.23939
H          9.06127        0.24489        1.56180
H          8.89228        0.22693        6.59286
H          9.90295       -1.01229        5.82681
H          7.05190       -1.48116        6.86459
H          8.52750       -1.80848        7.73977
H          7.83328       -3.18548        5.06370
H          7.41891       -3.80960        6.65466
H         10.22727       -3.45214        5.45927
H          9.42927       -4.93955        5.96209
H          8.86497       -4.92184        8.71265
H         10.34958       -3.92903       10.77453
H         12.20802       -2.28695        9.64889
H         11.76439       -2.38859        6.95334
