79

C         12.24835       -5.02635        6.45908
C         11.60354       -4.17829        5.35994
C         11.96606       -2.69217        5.45234
C         11.33091       -1.82828        4.35813
C         11.70338       -0.34692        4.46761
C         11.10104        0.53547        3.36951
C         11.50670        2.00550        3.50712
C         10.98509        2.91856        2.39333
C         11.44268        4.36889        2.57839
C         11.05292        5.30465        1.42782
C         11.37417        6.78926        1.69241
C         12.87613        7.00271        1.90221
S         13.27014        8.73202        2.34842
C         12.74635        8.85879        4.13195
C         13.68225        8.11158        5.11127
O         12.94104        7.55840        6.18391
C         12.48265       10.34946        4.40375
C         11.98532       10.63553        5.82555
C         15.11873        8.62191        2.36242
O         15.58719        9.74187        3.03098
C         16.96622       10.03042        2.91319
C         17.84143        9.13373        2.29775
C         19.20960        9.42388        2.19242
C         20.15885        8.45316        1.54043
C         19.66070       10.63504        2.72798
C         18.77142       11.51241        3.34532
C         17.39937       11.24970        3.46217
C         16.50205       12.26279        4.15783
C         15.41748       12.84861        3.23408
C         15.93955       11.72835        5.48976
H         11.96941       -6.08494        6.36825
H         11.93941       -4.68637        7.45891
H         13.34634       -4.96777        6.41637
H         10.50670       -4.28727        5.40471
H         11.90436       -4.56415        4.37115
H         13.06456       -2.58315        5.40964
H         11.66505       -2.30576        6.44239
H         10.23263       -1.93424        4.39773
H         11.63537       -2.20979        3.36761
H         12.80339       -0.24791        4.44543
H         11.38829        0.03537        5.45470
H         10.00059        0.45215        3.38819
H         11.41708        0.15841        2.38110
H         12.60942        2.07116        3.53406
H         11.16044        2.38823        4.48350
H          9.88310        2.88018        2.35791
H         11.33517        2.54452        1.41566
H         12.53970        4.36038        2.70742
H         11.02998        4.76190        3.52513
H          9.96986        5.23344        1.24317
H         11.54136        4.98086        0.49358
H         10.81777        7.11245        2.58709
H         11.02564        7.41063        0.85419
H         13.43979        6.82182        0.97402
H         13.28517        6.35952        2.69314
H         11.79369        8.30257        4.11306
H         14.48903        8.77967        5.45242
H         14.15687        7.25020        4.61746
H         12.77146        8.24471        6.84807
H         11.73574       10.70760        3.67890
H         13.39988       10.92363        4.21705
H         11.09450       10.04440        6.07990
H         11.71528       11.69520        5.91215
H         12.76220       10.45027        6.58199
H         15.38369        8.60229        1.28903
H         15.39882        7.66468        2.83707
H         17.48421        8.18529        1.89343
H         19.62516        7.65129        1.01454
H         20.81567        7.98375        2.28789
H         20.80804        8.96152        0.81467
H         20.71794       10.89604        2.66201
H         19.14826       12.45179        3.75499
H         17.16770       13.10059        4.42027
H         14.69752       12.08996        2.89940
H         15.86906       13.29238        2.33706
H         14.85857       13.63862        3.75513
H         15.29114       10.85544        5.33886
H         15.35011       12.50397        5.99914
H         16.75237       11.42399        6.16226
