84

C          1.03827        0.42559       -0.30984
C          2.56202        0.30228       -0.22417
C          3.03228       -1.02256        0.38682
C          4.55587       -1.15434        0.48108
C          5.02364       -2.49395        1.05993
C          6.54704       -2.62515        1.15837
C          7.01675       -3.97286        1.71687
C          8.54091       -4.10066        1.80945
C          9.01991       -5.44416        2.37061
C         10.54598       -5.56587        2.43997
C         11.04164       -6.88772        3.03713
C         12.56970       -7.00488        3.06587
C         13.08680       -8.28086        3.73970
C         14.61598       -8.39166        3.73581
C         15.15295       -9.59664        4.51607
C         16.68352       -9.69152        4.51714
C         17.22223      -10.81649        5.40694
C         18.75470      -10.88640        5.45573
C         19.25904      -11.93798        6.45343
C         20.77214      -12.07825        6.53944
N         21.47550      -10.77243        6.88911
N         20.84001      -10.11423        8.02676
C         21.11812      -10.77112        9.30150
C         21.11321       -8.67569        8.03617
C         22.99319      -10.90961        6.88539
C         23.60358       -9.73825        6.07983
C         25.00547      -10.07328        5.57674
O         24.82674      -11.09411        4.58988
O         22.73164       -9.43636        4.98425
H          0.73490        1.37994       -0.76216
H          0.57591        0.36902        0.68706
H          0.60591       -0.38244       -0.91890
H          2.96743        1.14021        0.36809
H          2.99701        0.40912       -1.23257
H          2.62972       -1.86021       -0.21012
H          2.59321       -1.13462        1.39422
H          4.95649       -0.32960        1.09675
H          4.99540       -1.01980       -0.52331
H          4.62633       -3.31639        0.43923
H          4.58028       -2.63312        2.06186
H          6.94348       -1.81036        1.78980
H          6.99037       -2.47216        0.15837
H          6.61974       -4.78737        1.08560
H          6.57584       -4.12653        2.71777
H          8.93745       -3.28286        2.43698
H          8.97924       -3.94850        0.80715
H          8.61528       -6.26457        1.75215
H          8.59482       -5.59021        3.37945
H         10.95061       -4.72719        3.03389
H         10.96556       -5.44429        1.42558
H         10.62028       -7.73186        2.46357
H         10.64693       -6.99394        4.06311
H         12.99038       -6.12728        3.58827
H         12.95724       -6.95297        2.03312
H         12.65297       -9.16508        3.24108
H         12.72185       -8.31317        4.78149
H         15.04558       -7.46789        4.16286
H         14.97655       -8.43672        2.69325
H         14.72757      -10.52696        4.10140
H         14.79343       -9.53979        5.55870
H         17.10356       -8.72882        4.86002
H         17.04580       -9.82861        3.48352
H         16.82507      -11.78696        5.06364
H         16.83942      -10.67857        6.43305
H         19.13198       -9.88574        5.73463
H         19.15105      -11.10134        4.44806
H         18.88296      -12.93301        6.16510
H         18.84675      -11.73183        7.45140
H         21.20821      -12.36440        5.57142
H         21.08371      -12.82533        7.28140
H         21.30426      -10.13984        6.07539
H         20.86034      -11.83554        9.25559
H         20.45997      -10.30489       10.04438
H         22.16058      -10.65966        9.65499
H         20.92336       -8.25170        7.04108
H         22.13595       -8.40990        8.36271
H         20.40365       -8.21704        8.73547
H         23.22958      -11.86393        6.39963
H         23.35031      -10.94240        7.92073
H         23.65689       -8.83162        6.69886
H         25.64281      -10.41479        6.41177
H         25.45343       -9.16580        5.14122
H         25.64049      -11.19397        4.07286
H         23.04924       -9.97348        4.22953
