73

C          9.59995       -0.80356        4.13977
C          8.98824        0.52211        3.68269
C          9.15053        0.77342        2.17827
C          8.55743        2.11578        1.73096
C          8.76565        2.35813        0.24913
O          8.20454        3.68135       -0.07055
C          8.52248        4.20377       -1.25146
O          9.24160        3.67843       -2.09017
C          7.83038        5.55177       -1.45244
C          8.61068        6.49285       -2.30868
N          8.55904        7.79838       -2.24062
N          9.40058        8.22833       -3.24111
C          9.98113        7.19601       -3.89683
N         10.85511        7.27330       -4.90775
C         11.53341        6.05979       -5.41714
C         10.57602        4.96220       -5.83192
C          9.57222        5.21289       -6.77972
C          8.68431        4.19660       -7.12510
C          8.78600        2.93486       -6.52889
C          9.78093        2.66087       -5.58174
C         10.67295        3.69515       -5.24722
C          9.89722        1.31047       -4.92654
C         11.24776        8.61002       -5.37828
C         12.31600        9.30851       -4.50782
C         12.11798       10.82692       -4.42640
S         10.61353       11.30147       -3.51841
C          9.45466       11.80862       -4.83914
S          9.86490       11.77867       -6.44764
N          8.26335       12.20526       -4.34323
C          7.86376       12.18660       -2.92949
C          6.66593       11.24572       -2.75083
O          5.58402       11.61526       -3.59483
C          5.97567       11.62201       -4.96700
C          7.14141       12.57915       -5.21824
N          9.47011        6.08049       -3.30876
H          9.46742       -0.95237        5.21962
H         10.67917       -0.84008        3.93035
H          9.13389       -1.65844        3.62807
H          9.45056        1.35471        4.23909
H          7.91623        0.54501        3.93964
H          8.67468       -0.04940        1.61721
H         10.22297        0.73867        1.91872
H          9.02723        2.93699        2.29575
H          7.48039        2.14794        1.95963
H          8.24686        1.61732       -0.37750
H          9.82858        2.36391       -0.03024
H          7.60484        6.02995       -0.49275
H          6.86071        5.33460       -1.93494
H          9.65979        9.23075       -3.30485
H         12.24153        5.68196       -4.66111
H         12.12935        6.39997       -6.27514
H          9.48565        6.19795       -7.24259
H          7.90733        4.38392       -7.86710
H          8.08122        2.14939       -6.80725
H         11.45815        3.50238       -4.51001
H          9.09757        0.63583       -5.25469
H          9.84463        1.40228       -3.83185
H         10.85929        0.83509       -5.16869
H         10.34011        9.23035       -5.44111
H         11.59392        8.49659       -6.41229
H         13.32169        9.10781       -4.90689
H         12.30337        8.88165       -3.49274
H         12.02361       11.29243       -5.42263
H         12.94453       11.30499       -3.88536
H          7.58356       13.21194       -2.63914
H          8.69711       11.87296       -2.29063
H          6.29324       11.30225       -1.71946
H          6.97768       10.20212       -2.95509
H          5.09433       11.93809       -5.53957
H          6.25991       10.60041       -5.28847
H          6.84577       13.61218       -4.97603
H          7.48134       12.53469       -6.25865
H          9.66463        5.09431       -3.51818
