61

F          2.28294        1.09870        3.36348
C          3.36205        0.79534        2.53628
C          2.90142        0.82214        1.07201
C          4.03511        0.45085        0.14867
C          4.85734        1.45168       -0.33901
C          5.97994        1.16730       -1.15583
C          6.82780        2.18510       -1.65941
C          6.62176        3.65505       -1.47095
C          5.62658        4.24817       -2.50087
C          5.42637        5.75620       -2.31043
C          4.45888        6.35320       -3.33525
N          7.87878        1.80740       -2.41565
C          8.19087        0.51065       -2.74594
C          7.39765       -0.50132       -2.28960
C          6.26670       -0.20564       -1.47936
C          5.41574       -1.21001       -0.97933
C          4.31640       -0.91968       -0.18165
C          3.41943       -2.04110        0.26449
C          2.25231       -2.27869       -0.72477
C          1.33671       -3.42148       -0.27638
C          0.19235       -3.69787       -1.25782
C         -0.68107       -4.88063       -0.82434
C         -1.81507       -5.15208       -1.79993
O         -2.52555       -6.31582       -1.32004
C         -3.58400       -6.71333       -2.09153
O         -3.92581       -6.13514       -3.10579
C         -4.21468       -7.92255       -1.50673
C         -5.26879       -8.50142       -2.09181
H          3.74326       -0.19726        2.82564
H          4.15061        1.54370        2.71654
H          2.54040        1.83323        0.83759
H          2.04936        0.13916        0.95972
H          4.62839        2.48624       -0.08135
H          7.59106        4.17194       -1.55855
H          6.26400        3.85143       -0.45052
H          4.65992        3.72628       -2.41684
H          5.99659        4.04466       -3.51964
H          6.40206        6.26528       -2.37839
H          5.05403        5.94674       -1.29019
H          4.82617        6.21660       -4.36243
H          4.33005        7.43065       -3.17061
H          3.46531        5.88673       -3.26908
H          8.48684        2.54679       -2.76670
H          9.07485        0.37258       -3.36343
H          7.63745       -1.53165       -2.54833
H          5.63382       -2.25073       -1.22748
H          3.01082       -1.84447        1.26594
H          4.01124       -2.96488        0.34455
H          2.67117       -2.49927       -1.72047
H          1.66722       -1.35086       -0.83979
H          0.92031       -3.18901        0.71872
H          1.93715       -4.33837       -0.14772
H          0.61158       -3.89824       -2.25887
H         -0.42926       -2.79213       -1.36252
H         -1.10292       -4.69233        0.17603
H         -0.06233       -5.78834       -0.73787
H         -1.44355       -5.35350       -2.81725
H         -2.51522       -4.30478       -1.86887
H         -3.77425       -8.31127       -0.58730
H         -5.68706       -8.08696       -3.01100
H         -5.73660       -9.39076       -1.67093
