118

C         19.07943        1.50094        8.63397
C         18.56651        0.67873        7.44861
C         18.46398        1.48850        6.15159
C         17.98922        0.67308        4.94438
C         17.87619        1.49941        3.65950
C         17.49343        0.68163        2.42195
C         17.39126        1.52561        1.14758
C         17.14695        0.71123       -0.12706
C         17.05022        1.58130       -1.38469
C         17.02541        0.79096       -2.69664
C         16.97925        1.68875       -3.93779
C         17.19734        0.94256       -5.25776
C         17.20544        1.86952       -6.47763
C         17.59797        1.17466       -7.78509
C         17.67786        2.13455       -8.97762
C         18.27536        1.48894      -10.23469
C         18.31474        2.39789      -11.47419
C         19.16444        3.64457      -11.24284
N         19.37106        4.46092      -12.51796
C         18.58929        5.81995      -12.60130
C         19.21495        6.82886      -11.61483
C         18.95087        8.34204      -11.82944
C         17.48396        8.77646      -11.69218
C         19.82676        9.11759      -10.83262
C         18.72031        6.27769      -14.07059
O         18.47001        5.13496      -14.88908
C         17.11890        5.49592      -12.30331
C         20.84571        4.51952      -12.84752
O         21.17503        3.20552      -13.15372
C         22.59309        2.90997      -13.09128
C         22.77266        1.41882      -13.30939
C         24.24345        0.98905      -13.23448
C         24.43453       -0.51999      -13.42723
C         25.89849       -0.96254      -13.33560
C         26.09533       -2.47234      -13.50894
C         27.55996       -2.91201      -13.41044
C         27.76286       -4.42194      -13.57304
C         29.22890       -4.85705      -13.47651
C         29.43748       -6.36678      -13.63921
C         30.90544       -6.79000      -13.53956
H         19.13938        0.89743        9.55017
H         18.41923        2.35631        8.84258
H         20.08426        1.90301        8.43506
H         17.57712        0.25596        7.69234
H         19.23132       -0.18655        7.28484
H         19.44937        1.93251        5.92280
H         17.78077        2.34199        6.30952
H         17.01185        0.21249        5.17215
H         18.68625       -0.16710        4.77707
H         18.83912        2.00633        3.46976
H         17.13762        2.30674        3.80889
H         16.53413        0.16480        2.60054
H         18.24187       -0.11654        2.27080
H         18.32367        2.10549        1.02441
H         16.58736        2.27340        1.26743
H         16.22647        0.11165       -0.01809
H         17.96805       -0.01698       -0.25118
H         17.91107        2.27338       -1.40702
H         16.15331        2.22204       -1.32023
H         16.16472        0.09973       -2.70433
H         17.92547        0.15254       -2.74537
H         17.75605        2.46854       -3.84164
H         16.01622        2.22735       -3.96929
H         16.42220        0.16719       -5.38430
H         18.15935        0.40287       -5.20827
H         17.91296        2.69732       -6.28994
H         16.21354        2.34099       -6.59032
H         16.88555        0.36297       -8.01094
H         18.57943        0.68692       -7.65068
H         18.28590        3.00561       -8.67424
H         16.67166        2.52912       -9.20536
H         17.69584        0.58971      -10.49497
H         19.29671        1.13386      -10.01414
H         17.28898        2.68139      -11.75675
H         18.74282        1.83766      -12.32061
H         20.16476        3.35142      -10.90232
H         18.73642        4.31446      -10.49055
H         18.97642        3.92074      -13.30939
H         20.30859        6.70767      -11.63651
H         18.89836        6.56439      -10.59228
H         19.29547        8.61160      -12.84295
H         17.04835        8.42663      -10.74404
H         16.84622        8.41963      -12.51183
H         17.41696        9.87244      -11.69841
H         19.52857        8.90394       -9.79488
H         19.72631       10.19927      -10.98844
H         20.89042        8.86139      -10.93774
H         19.71686        6.70578      -14.27380
H         17.97579        7.07012      -14.24443
H         18.43500        5.39323      -15.82222
H         16.96382        5.16396      -11.27045
H         16.72796        4.73448      -12.99014
H         16.51926        6.40027      -12.44163
H         21.38316        4.89931      -11.96133
H         20.99203        5.20458      -13.69796
H         22.97708        3.21988      -12.10112
H         23.12187        3.49671      -13.86365
H         22.34913        1.14859      -14.28976
H         22.18461        0.87820      -12.54970
H         24.66594        1.28655      -12.25897
H         24.82703        1.53156      -13.99799
H         24.02075       -0.81829      -14.40617
H         23.84074       -1.06127      -12.67003
H         26.31224       -0.65149      -12.36012
H         26.49027       -0.42693      -14.09847
H         25.68444       -2.78500      -14.48502
H         25.50155       -3.00730      -12.74687
H         27.97090       -2.59234      -12.43651
H         28.15238       -2.38005      -14.17554
H         27.35037       -4.74301      -14.54587
H         27.17293       -4.95414      -12.80594
H         29.64168       -4.53608      -12.50357
H         29.81908       -4.32414      -14.24304
H         29.02678       -6.68644      -14.61206
H         28.84722       -6.89915      -12.87408
H         31.51563       -6.30089      -14.31357
H         31.02171       -7.87544      -13.66337
H         31.33419       -6.51961      -12.56300
