74

C          1.01961       -0.25415       -0.35801
C          2.40871       -0.57661        0.19801
C          2.99327        0.54470        1.06456
C          4.38054        0.22417        1.62997
C          4.98659        1.36190        2.45804
C          6.36121        1.02584        3.04632
C          7.00664        2.19410        3.79858
C          8.36829        1.84905        4.41270
C          9.06363        3.06272        5.04114
C         10.40088        2.71619        5.67218
O         11.03753        3.94000        6.08962
C         12.33210        3.76241        6.63131
C         12.87600        5.17995        6.86242
O         14.22887        5.22757        7.25666
C         15.12498        5.16076        6.15782
N         14.88850        6.29300        5.27575
C         13.61877        6.57436        4.93360
N         13.33915        7.43819        3.93033
C         14.39893        7.73098        2.99733
C         15.01923        8.98777        3.01366
C         16.04735        9.28233        2.11652
C         16.47759        8.30276        1.21657
C         15.88920        7.03742        1.21697
C         14.84544        6.73339        2.09847
O         14.38662        5.44446        2.12715
C         13.01576        5.17982        1.74662
C         11.93135        7.86825        3.72090
C         11.71135        9.23044        3.01047
C         11.39085        9.10338        1.51104
O         12.32958        8.32824        0.77309
O         10.65300        9.92960        3.66206
N         12.64834        5.97361        5.63607
H          0.62988       -1.07718       -0.97216
H          1.04074        0.64823       -0.98745
H          0.29669       -0.07326        0.45133
H          3.10018       -0.78604       -0.63608
H          2.36252       -1.50603        0.79078
H          2.30055        0.76102        1.89720
H          3.04621        1.47367        0.46898
H          5.06474       -0.02335        0.79903
H          4.31939       -0.68722        2.25031
H          4.29535        1.62964        3.27632
H          5.07028        2.26491        1.82735
H          7.03612        0.70179        2.23446
H          6.26689        0.15907        3.72338
H          6.32587        2.54341        4.59411
H          7.12552        3.04706        3.10676
H          9.02089        1.41725        3.63401
H          8.23750        1.05906        5.17173
H          8.41381        3.52272        5.80243
H          9.23197        3.82931        4.26528
H         11.05917        2.19777        4.94867
H         10.27282        2.05305        6.54702
H         12.98560        3.20571        5.93059
H         12.31445        3.22252        7.59504
H         12.31602        5.65869        7.68057
H         15.00438        4.21659        5.59899
H         16.13847        5.22514        6.56570
H         15.64567        6.85897        4.90853
H         14.69912        9.72684        3.74889
H         16.51836       10.26457        2.13350
H         17.28416        8.52039        0.51608
H         16.22531        6.25581        0.53544
H         13.03170        4.25301        1.16125
H         12.61105        6.00034        1.14168
H         12.39131        5.01968        2.64020
H         11.48773        7.98657        4.71817
H         11.37943        7.07933        3.18040
H         12.59983        9.86205        3.14961
H         11.26924       10.11308        1.08781
H         10.42266        8.58179        1.40481
H         13.10021        8.87903        0.56326
H          9.80127        9.63903        3.29365
H         11.72029        5.84535        5.23783
