56

N          2.17137        0.91351       -2.78148
C          2.44540        1.79488       -1.64820
C          3.27078        1.06562       -0.54925
C          4.65075        0.73111       -1.02110
C          5.65646        1.72102       -0.88946
N          6.90810        1.61448       -1.30747
N          7.21942        0.47502       -1.92970
C          6.36180       -0.54429       -2.09359
C          5.03523       -0.47161       -1.63968
C          4.18092       -1.70286       -1.80972
C          4.62354       -2.86229       -0.88138
C          4.29051       -2.64527        0.60483
C          2.81200       -2.92764        0.91041
S          2.32997       -2.10288        2.44502
O          3.06009       -2.66206        3.55585
O          2.30472       -0.67368        2.20610
Cl         0.35522       -2.73050        2.59801
C          8.62621        0.33681       -2.31786
C          9.27553       -0.83961       -1.52009
O          8.54419       -1.63782       -0.92829
N         10.62458       -0.91060       -1.57164
C         11.32147       -1.99346       -0.84524
C         12.17918       -1.50204        0.32636
C         11.39070       -0.87089        1.47839
C         12.29285       -0.42583        2.63180
C         11.46168        0.04909       -2.29221
H          2.01257        1.45053       -3.63282
H          1.32398        0.36778       -2.62191
H          1.54046        2.19138       -1.15663
H          3.01542        2.66380       -2.00924
H          2.72765        0.17209       -0.21755
H          3.33841        1.72864        0.32570
H          5.43571        2.66993       -0.39534
H          6.75288       -1.41883       -2.60843
H          4.26554       -2.03524       -2.85555
H          3.12537       -1.44796       -1.66368
H          5.70998       -3.01181       -0.97689
H          4.15424       -3.79023       -1.24155
H          4.54871       -1.61552        0.89741
H          4.91142       -3.30325        1.22623
H          2.60750       -3.99657        1.05202
H          2.12446       -2.52851        0.15196
H          9.09518        1.30492       -2.11666
H          8.67955        0.12725       -3.39607
H         11.95016       -2.52221       -1.57911
H         10.54724       -2.68602       -0.49456
H         12.94857       -0.79818       -0.03401
H         12.73416       -2.37865        0.69823
H         10.64609       -1.59620        1.84473
H         10.81504       -0.00566        1.10796
H         12.86002       -1.27354        3.04244
H         11.70711        0.01003        3.45175
H         13.02028        0.33067        2.30273
H         10.97222        0.41013       -3.20411
H         12.38387       -0.45937       -2.59898
H         11.73856        0.91120       -1.66608
