80

C          0.85746       12.60436        0.10010
C          2.37782       12.58423        0.26979
C          2.90173       11.26707        0.84971
C          4.42346       11.22829        1.01297
C          4.94263        9.91493        1.60484
C          6.46559        9.86929        1.75443
C          6.98264        8.56641        2.37058
C          8.50664        8.51891        2.50680
C          9.02824        7.23368        3.15510
C         10.55393        7.19682        3.27985
C         11.08207        5.93333        3.96814
C         12.61273        5.83809        4.03060
C         13.27005        6.93136        4.88380
C         14.79577        6.79962        4.90867
C         15.53570        7.94239        5.62689
C         15.17019        8.11169        7.11308
C         15.35459        6.88555        7.98643
F         16.71979        6.47316        7.97518
O         15.28295        9.22723        5.05553
C         15.76525        9.40827        3.73717
C         15.48261       10.84436        3.32068
C         15.92481       11.19460        1.89518
C         15.56503       12.63664        1.51871
C         15.98215       13.01274        0.09579
C         15.63077       14.45833       -0.26274
N         15.99168       14.74397       -1.65385
N         17.22027        9.13561        3.73722
C         17.78182        8.34744        4.66378
N         19.12601        8.22525        4.72445
N         17.00560        7.70380        5.53410
H          0.50950       13.55987       -0.31571
H          0.34801       12.45528        1.06374
H          0.52263       11.80461       -0.57705
H          2.68841       13.41656        0.92383
H          2.86103       12.76835       -0.70467
H          2.58335       10.43227        0.20074
H          2.42461       11.08655        1.82920
H          4.74326       12.06834        1.65470
H          4.89942       11.39935        0.03119
H          4.61396        9.07327        0.97039
H          4.47472        9.75041        2.59138
H          6.79665       10.72113        2.37475
H          6.93323       10.01586        0.76470
H          6.64454        7.71215        1.75863
H          6.52360        8.42688        3.36502
H          8.84526        9.38735        3.09993
H          8.96496        8.63634        1.50877
H          8.68821        6.36123        2.57112
H          8.57815        7.12221        4.15700
H         10.88114        8.09540        3.83112
H         11.00257        7.27504        2.27296
H         10.69962        5.04848        3.43481
H         10.66926        5.87103        4.99012
H         13.02094        5.88590        3.00549
H         12.90083        4.85070        4.42811
H         12.86419        6.87678        5.90776
H         12.99811        7.92568        4.49887
H         15.17986        6.73132        3.87790
H         15.09535        5.85059        5.38201
H         14.11191        8.40579        7.16287
H         15.75454        8.95327        7.51195
H         14.76692        6.02074        7.64841
H         15.10203        7.11081        9.03070
H         15.28273        8.69816        3.04253
H         15.95471       11.51587        4.05554
H         14.39553       10.98415        3.41443
H         15.46002       10.49851        1.17699
H         17.01810       11.07139        1.77588
H         16.03465       13.32715        2.24019
H         14.47601       12.77295        1.63031
H         15.49891       12.34498       -0.63520
H         17.07099       12.86631       -0.02211
H         16.10177       15.13845        0.47733
H         14.54217       14.59807       -0.16558
H         17.00636       14.78507       -1.76184
H         15.63479       15.65606       -1.93866
H         17.81233        9.73133        3.16679
H         19.70409        8.54533        3.95738
H         19.54868        7.56394        5.36442
H         17.41335        7.14155        6.28195
