98

C          4.56284       -1.30961       -2.79312
C          5.38429       -0.14293       -2.23789
C          5.24407        0.02754       -0.72105
C          6.05040        1.20042       -0.15424
C          5.90407        1.36429        1.36198
C          6.70788        2.53747        1.93297
C          6.55421        2.68809        3.44960
C          7.35578        3.87677        3.99547
N          7.21871        4.04852        5.45165
C          6.28539        4.83506        6.01515
S          6.12722        5.05175        7.67820
S          5.25230        5.68764        4.81555
C          4.02859        6.48465        5.88274
C          2.86820        5.55268        6.29084
C          2.52817        5.73579        7.77388
N          1.45894        4.82767        8.22328
C          0.24284        5.23016        8.61118
N         -0.47785        4.14054        8.91022
C          0.27805        2.98921        8.75459
C          1.52095        3.41725        8.29608
N          2.65276        2.73028        7.89299
N          3.78293        2.76571        8.72754
N          2.52212        1.52010        7.18388
C         -0.28324        1.63410        9.03658
C         -1.11526        1.03909        7.87925
C         -1.68619       -0.33799        8.22655
C         -2.46759       -0.96951        7.06103
N         -3.08779       -2.23021        7.42073
C         -2.45389       -3.45682        7.44905
C         -3.33472       -4.38421        7.97294
C         -4.54150       -3.69627        8.28299
C         -4.36006       -2.37024        7.93886
C          8.18636        3.30498        6.27880
C          9.46008        4.10825        6.56227
C         10.46156        3.31913        7.41113
C         11.74243        4.10643        7.70644
C         12.75643        3.33264        8.55529
C         14.04033        4.11902        8.83767
C         15.06238        3.34900        9.68150
C         16.34530        4.14032        9.94762
H          4.68658       -1.40835       -3.88010
H          3.48934       -1.17331       -2.59254
H          4.86462       -2.26440       -2.33708
H          5.08149        0.79272       -2.73778
H          6.44853       -0.28802       -2.48951
H          5.55636       -0.90599       -0.22029
H          4.17707        0.16217       -0.46823
H          5.73869        2.13420       -0.65442
H          7.11703        1.06588       -0.40511
H          6.21584        0.43072        1.86239
H          4.83690        1.49979        1.61294
H          6.39169        3.47246        1.43848
H          7.77473        2.40702        1.68123
H          6.88319        1.76442        3.95328
H          5.49182        2.82439        3.70767
H          7.06242        4.81021        3.49272
H          8.42811        3.74498        3.78864
H          3.67689        7.34745        5.30146
H          4.57964        6.85230        6.76185
H          3.16244        4.50862        6.12768
H          1.97927        5.74253        5.67099
H          2.18370        6.75576        7.99180
H          3.42701        5.54347        8.37702
H         -0.09153        6.25770        8.68905
H         -1.43520        4.16380        9.24916
H          3.53518        2.89363        9.70842
H          4.48365        3.44950        8.40470
H          2.08069        1.69859        6.28295
H          2.02222        0.78879        7.69639
H         -0.90721        1.69427        9.94376
H          0.53835        0.95459        9.30385
H         -0.48566        0.97535        6.97651
H         -1.93551        1.73253        7.62699
H         -2.35592       -0.26154        9.09809
H         -0.87308       -1.02099        8.52065
H         -1.80016       -1.13922        6.20110
H         -3.26064       -0.28676        6.71920
H         -1.43853       -3.56727        7.08085
H         -3.13746       -5.44367        8.10068
H         -5.44965       -4.12667        8.69280
H         -5.03197       -1.51965        7.99877
H          8.42311        2.37799        5.73534
H          7.68618        3.03455        7.21745
H          9.18110        5.03886        7.08042
H          9.93115        4.40393        5.60994
H         10.72121        2.37641        6.89805
H          9.98280        3.02682        8.36170
H         11.47942        5.04844        8.21841
H         12.21522        4.40244        6.75372
H         13.01228        2.38684        8.04609
H         12.28651        3.04288        9.51171
H         13.78492        5.06421        9.34871
H         14.50617        4.41242        7.88011
H         15.31166        2.40235        9.17283
H         14.59861        3.06279       10.64066
H         16.85216        4.40612        9.00783
H         17.05583        3.56447       10.55619
H         16.13296        5.07778       10.48308
