45

F          3.42307        3.88638       -0.74000
C          3.31761        2.58508       -1.24788
C          3.18448        1.59322       -0.10568
N          4.43041        1.44915        0.66856
C          5.44449        2.37522        0.82032
N          6.51727        1.83403        1.32941
N          6.18244        0.52136        1.54494
C          4.91409        0.26766        1.15172
N          4.26032       -0.91281        1.18742
C          2.95520       -1.10343        1.86037
C          2.61213       -2.58402        1.77037
O          3.72784       -3.28044        2.32578
C          3.88321       -4.63444        1.93378
C          5.37855       -4.89044        1.76380
F          6.07001       -4.65902        2.90362
F          5.60336       -6.15962        1.37698
F          5.90604       -4.05979        0.80852
C          7.20727       -0.43355        1.98406
C          7.89429       -1.14747        0.80970
C          8.65040       -0.20046       -0.15507
C          8.42233       -0.46986       -1.64853
S          6.77410        0.07358       -2.17985
O          5.74981       -0.78509       -1.61065
O          6.65419        1.50882       -2.01955
Cl         6.86100       -0.32937       -4.20359
H          4.20699        2.38290       -1.86240
H          2.41225        2.53485       -1.87009
H          2.96671        0.60356       -0.53232
H          2.36402        1.89049        0.56341
H          5.34622        3.41729        0.53686
H          4.85910       -1.72572        1.34546
H          2.16648       -0.52000        1.36836
H          3.01404       -0.79047        2.91577
H          2.45968       -2.88203        0.71797
H          1.68754       -2.78788        2.33655
H          3.39591       -4.84414        0.96782
H          3.48899       -5.32680        2.69539
H          6.72733       -1.15976        2.65617
H          7.91615        0.15612        2.57812
H          7.14614       -1.73743        0.26319
H          8.58907       -1.87894        1.24592
H          9.73378       -0.29424        0.00611
H          8.41615        0.85380        0.05333
H          8.48438       -1.53307       -1.91959
H          9.11558        0.10548       -2.27643
